REMARK  Name = ../refined-set-2016/1b2h/1b2h_pocket.pdb
REMARK  265 active torsions:
REMARK  status: ('A' for Active; 'I' for Inactive)
REMARK    1  A    between atoms: _1  and  _3
REMARK    2  A    between atoms: _3  and  _4
REMARK    3  A    between atoms: _3  and  _6
REMARK    4  A    between atoms: _6  and  _7
REMARK    5  A    between atoms: _12  and  _14
REMARK    6  A    between atoms: _14  and  _15
REMARK    7  A    between atoms: _17  and  _19
REMARK    8  A    between atoms: _19  and  _20
REMARK    9  A    between atoms: _19  and  _22
REMARK   10  A    between atoms: _22  and  _23
REMARK   11  A    between atoms: _25  and  _27
REMARK   12  A    between atoms: _27  and  _28
REMARK   13  A    between atoms: _27  and  _30
REMARK   14  A    between atoms: _30  and  _31
REMARK   15  A    between atoms: _31  and  _32
REMARK   16  A    between atoms: _37  and  _39
REMARK   17  A    between atoms: _39  and  _40
REMARK   18  A    between atoms: _39  and  _42
REMARK   19  A    between atoms: _42  and  _43
REMARK   20  A    between atoms: _46  and  _48
REMARK   21  A    between atoms: _48  and  _49
REMARK   22  A    between atoms: _48  and  _51
REMARK   23  A    between atoms: _52  and  _53
REMARK   24  A    between atoms: _56  and  _58
REMARK   25  A    between atoms: _58  and  _59
REMARK   26  A    between atoms: _61  and  _63
REMARK   27  A    between atoms: _63  and  _64
REMARK   28  A    between atoms: _63  and  _66
REMARK   29  A    between atoms: _70  and  _71
REMARK   30  A    between atoms: _76  and  _78
REMARK   31  A    between atoms: _78  and  _79
REMARK   32  A    between atoms: _78  and  _81
REMARK   33  A    between atoms: _81  and  _82
REMARK   34  A    between atoms: _82  and  _83
REMARK   35  A    between atoms: _86  and  _88
REMARK   36  A    between atoms: _88  and  _89
REMARK   37  A    between atoms: _88  and  _91
REMARK   38  A    between atoms: _91  and  _92
REMARK   39  A    between atoms: _94  and  _96
REMARK   40  A    between atoms: _96  and  _97
REMARK   41  A    between atoms: _96  and  _99
REMARK   42  A    between atoms: _99  and  _100
REMARK   43  A    between atoms: _105  and  _107
REMARK   44  A    between atoms: _107  and  _108
REMARK   45  A    between atoms: _107  and  _110
REMARK   46  A    between atoms: _110  and  _111
REMARK   47  A    between atoms: _111  and  _112
REMARK   48  A    between atoms: _112  and  _113
REMARK   49  A    between atoms: _123  and  _124
REMARK   50  A    between atoms: _129  and  _131
REMARK   51  A    between atoms: _131  and  _132
REMARK   52  A    between atoms: _131  and  _134
REMARK   53  A    between atoms: _134  and  _135
REMARK   54  A    between atoms: _140  and  _141
REMARK   55  A    between atoms: _143  and  _145
REMARK   56  A    between atoms: _145  and  _146
REMARK   57  A    between atoms: _145  and  _148
REMARK   58  A    between atoms: _148  and  _149
REMARK   59  A    between atoms: _154  and  _155
REMARK   60  A    between atoms: _157  and  _159
REMARK   61  A    between atoms: _159  and  _160
REMARK   62  A    between atoms: _159  and  _162
REMARK   63  A    between atoms: _165  and  _167
REMARK   64  A    between atoms: _167  and  _168
REMARK   65  A    between atoms: _167  and  _170
REMARK   66  A    between atoms: _170  and  _171
REMARK   67  A    between atoms: _177  and  _178
REMARK   68  A    between atoms: _183  and  _185
REMARK   69  A    between atoms: _185  and  _186
REMARK   70  A    between atoms: _185  and  _188
REMARK   71  A    between atoms: _188  and  _189
REMARK   72  A    between atoms: _191  and  _193
REMARK   73  A    between atoms: _193  and  _194
REMARK   74  A    between atoms: _193  and  _196
REMARK   75  A    between atoms: _196  and  _197
REMARK   76  A    between atoms: _197  and  _198
REMARK   77  A    between atoms: _201  and  _203
REMARK   78  A    between atoms: _203  and  _204
REMARK   79  A    between atoms: _203  and  _206
REMARK   80  A    between atoms: _206  and  _207
REMARK   81  A    between atoms: _212  and  _213
REMARK   82  A    between atoms: _215  and  _217
REMARK   83  A    between atoms: _217  and  _218
REMARK   84  A    between atoms: _217  and  _220
REMARK   85  A    between atoms: _220  and  _221
REMARK   86  A    between atoms: _226  and  _228
REMARK   87  A    between atoms: _228  and  _229
REMARK   88  A    between atoms: _228  and  _231
REMARK   89  A    between atoms: _231  and  _232
REMARK   90  A    between atoms: _237  and  _239
REMARK   91  A    between atoms: _239  and  _240
REMARK   92  A    between atoms: _239  and  _242
REMARK   93  A    between atoms: _242  and  _243
REMARK   94  A    between atoms: _243  and  _244
REMARK   95  A    between atoms: _246  and  _248
REMARK   96  A    between atoms: _248  and  _249
REMARK   97  A    between atoms: _248  and  _251
REMARK   98  A    between atoms: _251  and  _252
REMARK   99  A    between atoms: _257  and  _258
REMARK  100  A    between atoms: _260  and  _262
REMARK  101  A    between atoms: _262  and  _263
REMARK  102  A    between atoms: _262  and  _265
REMARK  103  A    between atoms: _265  and  _266
REMARK  104  A    between atoms: _269  and  _271
REMARK  105  A    between atoms: _271  and  _272
REMARK  106  A    between atoms: _271  and  _274
REMARK  107  A    between atoms: _274  and  _275
REMARK  108  A    between atoms: _275  and  _492
REMARK  109  A    between atoms: _276  and  _278
REMARK  110  A    between atoms: _278  and  _279
REMARK  111  A    between atoms: _278  and  _281
REMARK  112  A    between atoms: _281  and  _282
REMARK  113  A    between atoms: _285  and  _287
REMARK  114  A    between atoms: _287  and  _288
REMARK  115  A    between atoms: _287  and  _290
REMARK  116  A    between atoms: _290  and  _291
REMARK  117  A    between atoms: _296  and  _297
REMARK  118  A    between atoms: _299  and  _301
REMARK  119  A    between atoms: _301  and  _302
REMARK  120  A    between atoms: _301  and  _304
REMARK  121  A    between atoms: _304  and  _305
REMARK  122  A    between atoms: _310  and  _311
REMARK  123  A    between atoms: _313  and  _315
REMARK  124  A    between atoms: _315  and  _316
REMARK  125  A    between atoms: _315  and  _318
REMARK  126  A    between atoms: _318  and  _319
REMARK  127  A    between atoms: _319  and  _320
REMARK  128  A    between atoms: _323  and  _325
REMARK  129  A    between atoms: _325  and  _326
REMARK  130  A    between atoms: _325  and  _328
REMARK  131  A    between atoms: _328  and  _329
REMARK  132  A    between atoms: _334  and  _335
REMARK  133  A    between atoms: _337  and  _339
REMARK  134  A    between atoms: _339  and  _340
REMARK  135  A    between atoms: _339  and  _342
REMARK  136  A    between atoms: _342  and  _343
REMARK  137  A    between atoms: _348  and  _350
REMARK  138  A    between atoms: _350  and  _351
REMARK  139  A    between atoms: _350  and  _353
REMARK  140  A    between atoms: _353  and  _354
REMARK  141  A    between atoms: _357  and  _359
REMARK  142  A    between atoms: _359  and  _360
REMARK  143  A    between atoms: _359  and  _362
REMARK  144  A    between atoms: _362  and  _363
REMARK  145  A    between atoms: _368  and  _370
REMARK  146  A    between atoms: _370  and  _371
REMARK  147  A    between atoms: _370  and  _373
REMARK  148  A    between atoms: _373  and  _374
REMARK  149  A    between atoms: _384  and  _386
REMARK  150  A    between atoms: _386  and  _387
REMARK  151  A    between atoms: _386  and  _389
REMARK  152  A    between atoms: _389  and  _390
REMARK  153  A    between atoms: _396  and  _398
REMARK  154  A    between atoms: _398  and  _399
REMARK  155  A    between atoms: _398  and  _401
REMARK  156  A    between atoms: _401  and  _402
REMARK  157  A    between atoms: _405  and  _407
REMARK  158  A    between atoms: _407  and  _408
REMARK  159  A    between atoms: _407  and  _410
REMARK  160  A    between atoms: _410  and  _411
REMARK  161  A    between atoms: _414  and  _416
REMARK  162  A    between atoms: _416  and  _417
REMARK  163  A    between atoms: _416  and  _419
REMARK  164  A    between atoms: _419  and  _420
REMARK  165  A    between atoms: _420  and  _421
REMARK  166  A    between atoms: _421  and  _422
REMARK  167  A    between atoms: _431  and  _433
REMARK  168  A    between atoms: _433  and  _434
REMARK  169  A    between atoms: _433  and  _436
REMARK  170  A    between atoms: _436  and  _437
REMARK  171  A    between atoms: _442  and  _444
REMARK  172  A    between atoms: _444  and  _445
REMARK  173  A    between atoms: _444  and  _447
REMARK  174  A    between atoms: _447  and  _448
REMARK  175  A    between atoms: _449  and  _450
REMARK  176  A    between atoms: _459  and  _461
REMARK  177  A    between atoms: _461  and  _462
REMARK  178  A    between atoms: _465  and  _467
REMARK  179  A    between atoms: _467  and  _468
REMARK  180  A    between atoms: _470  and  _472
REMARK  181  A    between atoms: _472  and  _473
REMARK  182  A    between atoms: _472  and  _475
REMARK  183  A    between atoms: _475  and  _476
REMARK  184  A    between atoms: _486  and  _488
REMARK  185  A    between atoms: _488  and  _489
REMARK  186  A    between atoms: _488  and  _491
REMARK  187  A    between atoms: _491  and  _492
REMARK  188  A    between atoms: _493  and  _495
REMARK  189  A    between atoms: _495  and  _496
REMARK  190  A    between atoms: _499  and  _501
REMARK  191  A    between atoms: _501  and  _502
REMARK  192  A    between atoms: _501  and  _504
REMARK  193  A    between atoms: _504  and  _505
REMARK  194  A    between atoms: _508  and  _510
REMARK  195  A    between atoms: _510  and  _511
REMARK  196  A    between atoms: _510  and  _513
REMARK  197  A    between atoms: _513  and  _514
REMARK  198  A    between atoms: _519  and  _520
REMARK  199  A    between atoms: _522  and  _524
REMARK  200  A    between atoms: _524  and  _525
REMARK  201  A    between atoms: _524  and  _527
REMARK  202  A    between atoms: _527  and  _528
REMARK  203  A    between atoms: _530  and  _532
REMARK  204  A    between atoms: _532  and  _533
REMARK  205  A    between atoms: _532  and  _535
REMARK  206  A    between atoms: _535  and  _536
REMARK  207  A    between atoms: _542  and  _544
REMARK  208  A    between atoms: _544  and  _545
REMARK  209  A    between atoms: _544  and  _547
REMARK  210  A    between atoms: _547  and  _548
REMARK  211  A    between atoms: _551  and  _553
REMARK  212  A    between atoms: _553  and  _554
REMARK  213  A    between atoms: _553  and  _556
REMARK  214  A    between atoms: _556  and  _557
REMARK  215  A    between atoms: _559  and  _561
REMARK  216  A    between atoms: _561  and  _562
REMARK  217  A    between atoms: _561  and  _564
REMARK  218  A    between atoms: _564  and  _565
REMARK  219  A    between atoms: _570  and  _572
REMARK  220  A    between atoms: _572  and  _573
REMARK  221  A    between atoms: _572  and  _575
REMARK  222  A    between atoms: _575  and  _576
REMARK  223  A    between atoms: _581  and  _583
REMARK  224  A    between atoms: _583  and  _584
REMARK  225  A    between atoms: _583  and  _586
REMARK  226  A    between atoms: _586  and  _587
REMARK  227  A    between atoms: _590  and  _592
REMARK  228  A    between atoms: _592  and  _593
REMARK  229  A    between atoms: _596  and  _598
REMARK  230  A    between atoms: _598  and  _599
REMARK  231  A    between atoms: _598  and  _601
REMARK  232  A    between atoms: _601  and  _602
REMARK  233  A    between atoms: _607  and  _608
REMARK  234  A    between atoms: _610  and  _612
REMARK  235  A    between atoms: _612  and  _613
REMARK  236  A    between atoms: _612  and  _615
REMARK  237  A    between atoms: _615  and  _616
REMARK  238  A    between atoms: _621  and  _622
REMARK  239  A    between atoms: _624  and  _626
REMARK  240  A    between atoms: _626  and  _627
REMARK  241  A    between atoms: _626  and  _629
REMARK  242  A    between atoms: _632  and  _634
REMARK  243  A    between atoms: _634  and  _635
REMARK  244  A    between atoms: _634  and  _637
REMARK  245  A    between atoms: _637  and  _638
REMARK  246  A    between atoms: _643  and  _645
REMARK  247  A    between atoms: _645  and  _646
REMARK  248  A    between atoms: _649  and  _651
REMARK  249  A    between atoms: _651  and  _652
REMARK  250  A    between atoms: _651  and  _654
REMARK  251  A    between atoms: _654  and  _655
REMARK  252  A    between atoms: _655  and  _656
REMARK  253  A    between atoms: _656  and  _657
REMARK  254  A    between atoms: _666  and  _668
REMARK  255  A    between atoms: _668  and  _669
REMARK  256  A    between atoms: _668  and  _671
REMARK  257  A    between atoms: _671  and  _672
REMARK  258  A    between atoms: _675  and  _677
REMARK  259  A    between atoms: _677  and  _678
REMARK  260  A    between atoms: _677  and  _680
REMARK  261  A    between atoms: _680  and  _681
REMARK  262  A    between atoms: _684  and  _686
REMARK  263  A    between atoms: _686  and  _687
REMARK  264  A    between atoms: _686  and  _689
REMARK  265  A    between atoms: _689  and  _690
REMARK                            x       y       z     vdW  Elec       q    Type
REMARK                         _______ _______ _______ _____ _____    ______ ____
ROOT
ATOM      1  C   ASN A   1      -3.312  23.832   6.671  0.00  0.00    +0.239 C 
ATOM      2  O   ASN A   1      -2.263  23.969   7.325  0.00  0.00    -0.274 OA
ATOM      3  N   GLY A   2      -4.478  24.162   7.206  0.00  0.00    -0.296 N 
ATOM      4  H   GLY A   2      -5.329  24.081   6.613  0.00  0.00    +0.150 HD
ENDROOT
BRANCH   1   5
ATOM      5  CA  ASN A   1      -3.335  23.179   5.300  0.00  0.00    +0.154 C 
BRANCH   5   6
ATOM      6  N   ASN A   1      -4.575  23.469   4.567  0.00  0.00    -0.238 NA
ATOM      7  H   ASN A   1      -4.928  24.444   4.491  0.00  0.00    +0.142 HD
ENDBRANCH   5   6
BRANCH   5   8
ATOM      8  CB  ASN A   1      -2.137  23.723   4.481  0.00  0.00    +0.111 C 
BRANCH   8   9
ATOM      9  CG  ASN A   1      -0.791  23.152   4.953  0.00  0.00    +0.221 C 
ATOM     10  OD1 ASN A   1      -0.710  21.939   5.182  0.00  0.00    -0.275 OA
ATOM     11  ND2 ASN A   1       0.206  24.032   5.015  0.00  0.00    -0.329 N 
ATOM     12 HD21 ASN A   1       1.162  23.717   5.276  0.00  0.00    +0.145 HD
ATOM     13 HD22 ASN A   1       0.029  25.034   4.802  0.00  0.00    +0.145 HD
ENDBRANCH   8   9
ENDBRANCH   5   8
ENDBRANCH   1   5
BRANCH   3  14
ATOM     14  CA  GLY A   2      -4.638  24.631   8.575  0.00  0.00    +0.176 C 
BRANCH  14  15
ATOM     15  C   GLY A   2      -4.328  26.071   8.864  0.00  0.00    +0.243 C 
ATOM     16  O   GLY A   2      -5.032  26.757   9.623  0.00  0.00    -0.273 OA
ATOM     17  N   SER A   3      -3.219  26.594   8.368  0.00  0.00    -0.296 N 
ATOM     18  H   SER A   3      -2.618  26.013   7.748  0.00  0.00    +0.150 HD
BRANCH  17  19
ATOM     19  CA  SER A   3      -2.822  27.944   8.663  0.00  0.00    +0.166 C 
BRANCH  19  20
ATOM     20  C   SER A   3      -1.698  28.362   7.724  0.00  0.00    +0.229 C 
ATOM     21  O   SER A   3      -1.226  27.531   6.933  0.00  0.00    -0.286 OA
ENDBRANCH  19  20
BRANCH  19  22
ATOM     22  CB  SER A   3      -2.264  28.023  10.106  0.00  0.00    +0.165 C 
BRANCH  22  23
ATOM     23  OG  SER A   3      -1.405  26.906  10.291  0.00  0.00    -0.380 OA
ATOM     24  H   SER A   3      -1.031  26.927  11.207  0.00  0.00    +0.211 HD
ENDBRANCH  22  23
ENDBRANCH  19  22
ENDBRANCH  17  19
ENDBRANCH  14  15
ENDBRANCH   3  14
TORSDOF 10
REMARK  Name = ../refined-set-2016/1b2h/1b2h_pocket.pdb
REMARK  265 active torsions:
REMARK  status: ('A' for Active; 'I' for Inactive)
REMARK    1  A    between atoms: _1  and  _3
REMARK    2  A    between atoms: _3  and  _4
REMARK    3  A    between atoms: _3  and  _6
REMARK    4  A    between atoms: _6  and  _7
REMARK    5  A    between atoms: _12  and  _14
REMARK    6  A    between atoms: _14  and  _15
REMARK    7  A    between atoms: _17  and  _19
REMARK    8  A    between atoms: _19  and  _20
REMARK    9  A    between atoms: _19  and  _22
REMARK   10  A    between atoms: _22  and  _23
REMARK   11  A    between atoms: _25  and  _27
REMARK   12  A    between atoms: _27  and  _28
REMARK   13  A    between atoms: _27  and  _30
REMARK   14  A    between atoms: _30  and  _31
REMARK   15  A    between atoms: _31  and  _32
REMARK   16  A    between atoms: _37  and  _39
REMARK   17  A    between atoms: _39  and  _40
REMARK   18  A    between atoms: _39  and  _42
REMARK   19  A    between atoms: _42  and  _43
REMARK   20  A    between atoms: _46  and  _48
REMARK   21  A    between atoms: _48  and  _49
REMARK   22  A    between atoms: _48  and  _51
REMARK   23  A    between atoms: _52  and  _53
REMARK   24  A    between atoms: _56  and  _58
REMARK   25  A    between atoms: _58  and  _59
REMARK   26  A    between atoms: _61  and  _63
REMARK   27  A    between atoms: _63  and  _64
REMARK   28  A    between atoms: _63  and  _66
REMARK   29  A    between atoms: _70  and  _71
REMARK   30  A    between atoms: _76  and  _78
REMARK   31  A    between atoms: _78  and  _79
REMARK   32  A    between atoms: _78  and  _81
REMARK   33  A    between atoms: _81  and  _82
REMARK   34  A    between atoms: _82  and  _83
REMARK   35  A    between atoms: _86  and  _88
REMARK   36  A    between atoms: _88  and  _89
REMARK   37  A    between atoms: _88  and  _91
REMARK   38  A    between atoms: _91  and  _92
REMARK   39  A    between atoms: _94  and  _96
REMARK   40  A    between atoms: _96  and  _97
REMARK   41  A    between atoms: _96  and  _99
REMARK   42  A    between atoms: _99  and  _100
REMARK   43  A    between atoms: _105  and  _107
REMARK   44  A    between atoms: _107  and  _108
REMARK   45  A    between atoms: _107  and  _110
REMARK   46  A    between atoms: _110  and  _111
REMARK   47  A    between atoms: _111  and  _112
REMARK   48  A    between atoms: _112  and  _113
REMARK   49  A    between atoms: _123  and  _124
REMARK   50  A    between atoms: _129  and  _131
REMARK   51  A    between atoms: _131  and  _132
REMARK   52  A    between atoms: _131  and  _134
REMARK   53  A    between atoms: _134  and  _135
REMARK   54  A    between atoms: _140  and  _141
REMARK   55  A    between atoms: _143  and  _145
REMARK   56  A    between atoms: _145  and  _146
REMARK   57  A    between atoms: _145  and  _148
REMARK   58  A    between atoms: _148  and  _149
REMARK   59  A    between atoms: _154  and  _155
REMARK   60  A    between atoms: _157  and  _159
REMARK   61  A    between atoms: _159  and  _160
REMARK   62  A    between atoms: _159  and  _162
REMARK   63  A    between atoms: _165  and  _167
REMARK   64  A    between atoms: _167  and  _168
REMARK   65  A    between atoms: _167  and  _170
REMARK   66  A    between atoms: _170  and  _171
REMARK   67  A    between atoms: _177  and  _178
REMARK   68  A    between atoms: _183  and  _185
REMARK   69  A    between atoms: _185  and  _186
REMARK   70  A    between atoms: _185  and  _188
REMARK   71  A    between atoms: _188  and  _189
REMARK   72  A    between atoms: _191  and  _193
REMARK   73  A    between atoms: _193  and  _194
REMARK   74  A    between atoms: _193  and  _196
REMARK   75  A    between atoms: _196  and  _197
REMARK   76  A    between atoms: _197  and  _198
REMARK   77  A    between atoms: _201  and  _203
REMARK   78  A    between atoms: _203  and  _204
REMARK   79  A    between atoms: _203  and  _206
REMARK   80  A    between atoms: _206  and  _207
REMARK   81  A    between atoms: _212  and  _213
REMARK   82  A    between atoms: _215  and  _217
REMARK   83  A    between atoms: _217  and  _218
REMARK   84  A    between atoms: _217  and  _220
REMARK   85  A    between atoms: _220  and  _221
REMARK   86  A    between atoms: _226  and  _228
REMARK   87  A    between atoms: _228  and  _229
REMARK   88  A    between atoms: _228  and  _231
REMARK   89  A    between atoms: _231  and  _232
REMARK   90  A    between atoms: _237  and  _239
REMARK   91  A    between atoms: _239  and  _240
REMARK   92  A    between atoms: _239  and  _242
REMARK   93  A    between atoms: _242  and  _243
REMARK   94  A    between atoms: _243  and  _244
REMARK   95  A    between atoms: _246  and  _248
REMARK   96  A    between atoms: _248  and  _249
REMARK   97  A    between atoms: _248  and  _251
REMARK   98  A    between atoms: _251  and  _252
REMARK   99  A    between atoms: _257  and  _258
REMARK  100  A    between atoms: _260  and  _262
REMARK  101  A    between atoms: _262  and  _263
REMARK  102  A    between atoms: _262  and  _265
REMARK  103  A    between atoms: _265  and  _266
REMARK  104  A    between atoms: _269  and  _271
REMARK  105  A    between atoms: _271  and  _272
REMARK  106  A    between atoms: _271  and  _274
REMARK  107  A    between atoms: _274  and  _275
REMARK  108  A    between atoms: _275  and  _492
REMARK  109  A    between atoms: _276  and  _278
REMARK  110  A    between atoms: _278  and  _279
REMARK  111  A    between atoms: _278  and  _281
REMARK  112  A    between atoms: _281  and  _282
REMARK  113  A    between atoms: _285  and  _287
REMARK  114  A    between atoms: _287  and  _288
REMARK  115  A    between atoms: _287  and  _290
REMARK  116  A    between atoms: _290  and  _291
REMARK  117  A    between atoms: _296  and  _297
REMARK  118  A    between atoms: _299  and  _301
REMARK  119  A    between atoms: _301  and  _302
REMARK  120  A    between atoms: _301  and  _304
REMARK  121  A    between atoms: _304  and  _305
REMARK  122  A    between atoms: _310  and  _311
REMARK  123  A    between atoms: _313  and  _315
REMARK  124  A    between atoms: _315  and  _316
REMARK  125  A    between atoms: _315  and  _318
REMARK  126  A    between atoms: _318  and  _319
REMARK  127  A    between atoms: _319  and  _320
REMARK  128  A    between atoms: _323  and  _325
REMARK  129  A    between atoms: _325  and  _326
REMARK  130  A    between atoms: _325  and  _328
REMARK  131  A    between atoms: _328  and  _329
REMARK  132  A    between atoms: _334  and  _335
REMARK  133  A    between atoms: _337  and  _339
REMARK  134  A    between atoms: _339  and  _340
REMARK  135  A    between atoms: _339  and  _342
REMARK  136  A    between atoms: _342  and  _343
REMARK  137  A    between atoms: _348  and  _350
REMARK  138  A    between atoms: _350  and  _351
REMARK  139  A    between atoms: _350  and  _353
REMARK  140  A    between atoms: _353  and  _354
REMARK  141  A    between atoms: _357  and  _359
REMARK  142  A    between atoms: _359  and  _360
REMARK  143  A    between atoms: _359  and  _362
REMARK  144  A    between atoms: _362  and  _363
REMARK  145  A    between atoms: _368  and  _370
REMARK  146  A    between atoms: _370  and  _371
REMARK  147  A    between atoms: _370  and  _373
REMARK  148  A    between atoms: _373  and  _374
REMARK  149  A    between atoms: _384  and  _386
REMARK  150  A    between atoms: _386  and  _387
REMARK  151  A    between atoms: _386  and  _389
REMARK  152  A    between atoms: _389  and  _390
REMARK  153  A    between atoms: _396  and  _398
REMARK  154  A    between atoms: _398  and  _399
REMARK  155  A    between atoms: _398  and  _401
REMARK  156  A    between atoms: _401  and  _402
REMARK  157  A    between atoms: _405  and  _407
REMARK  158  A    between atoms: _407  and  _408
REMARK  159  A    between atoms: _407  and  _410
REMARK  160  A    between atoms: _410  and  _411
REMARK  161  A    between atoms: _414  and  _416
REMARK  162  A    between atoms: _416  and  _417
REMARK  163  A    between atoms: _416  and  _419
REMARK  164  A    between atoms: _419  and  _420
REMARK  165  A    between atoms: _420  and  _421
REMARK  166  A    between atoms: _421  and  _422
REMARK  167  A    between atoms: _431  and  _433
REMARK  168  A    between atoms: _433  and  _434
REMARK  169  A    between atoms: _433  and  _436
REMARK  170  A    between atoms: _436  and  _437
REMARK  171  A    between atoms: _442  and  _444
REMARK  172  A    between atoms: _444  and  _445
REMARK  173  A    between atoms: _444  and  _447
REMARK  174  A    between atoms: _447  and  _448
REMARK  175  A    between atoms: _449  and  _450
REMARK  176  A    between atoms: _459  and  _461
REMARK  177  A    between atoms: _461  and  _462
REMARK  178  A    between atoms: _465  and  _467
REMARK  179  A    between atoms: _467  and  _468
REMARK  180  A    between atoms: _470  and  _472
REMARK  181  A    between atoms: _472  and  _473
REMARK  182  A    between atoms: _472  and  _475
REMARK  183  A    between atoms: _475  and  _476
REMARK  184  A    between atoms: _486  and  _488
REMARK  185  A    between atoms: _488  and  _489
REMARK  186  A    between atoms: _488  and  _491
REMARK  187  A    between atoms: _491  and  _492
REMARK  188  A    between atoms: _493  and  _495
REMARK  189  A    between atoms: _495  and  _496
REMARK  190  A    between atoms: _499  and  _501
REMARK  191  A    between atoms: _501  and  _502
REMARK  192  A    between atoms: _501  and  _504
REMARK  193  A    between atoms: _504  and  _505
REMARK  194  A    between atoms: _508  and  _510
REMARK  195  A    between atoms: _510  and  _511
REMARK  196  A    between atoms: _510  and  _513
REMARK  197  A    between atoms: _513  and  _514
REMARK  198  A    between atoms: _519  and  _520
REMARK  199  A    between atoms: _522  and  _524
REMARK  200  A    between atoms: _524  and  _525
REMARK  201  A    between atoms: _524  and  _527
REMARK  202  A    between atoms: _527  and  _528
REMARK  203  A    between atoms: _530  and  _532
REMARK  204  A    between atoms: _532  and  _533
REMARK  205  A    between atoms: _532  and  _535
REMARK  206  A    between atoms: _535  and  _536
REMARK  207  A    between atoms: _542  and  _544
REMARK  208  A    between atoms: _544  and  _545
REMARK  209  A    between atoms: _544  and  _547
REMARK  210  A    between atoms: _547  and  _548
REMARK  211  A    between atoms: _551  and  _553
REMARK  212  A    between atoms: _553  and  _554
REMARK  213  A    between atoms: _553  and  _556
REMARK  214  A    between atoms: _556  and  _557
REMARK  215  A    between atoms: _559  and  _561
REMARK  216  A    between atoms: _561  and  _562
REMARK  217  A    between atoms: _561  and  _564
REMARK  218  A    between atoms: _564  and  _565
REMARK  219  A    between atoms: _570  and  _572
REMARK  220  A    between atoms: _572  and  _573
REMARK  221  A    between atoms: _572  and  _575
REMARK  222  A    between atoms: _575  and  _576
REMARK  223  A    between atoms: _581  and  _583
REMARK  224  A    between atoms: _583  and  _584
REMARK  225  A    between atoms: _583  and  _586
REMARK  226  A    between atoms: _586  and  _587
REMARK  227  A    between atoms: _590  and  _592
REMARK  228  A    between atoms: _592  and  _593
REMARK  229  A    between atoms: _596  and  _598
REMARK  230  A    between atoms: _598  and  _599
REMARK  231  A    between atoms: _598  and  _601
REMARK  232  A    between atoms: _601  and  _602
REMARK  233  A    between atoms: _607  and  _608
REMARK  234  A    between atoms: _610  and  _612
REMARK  235  A    between atoms: _612  and  _613
REMARK  236  A    between atoms: _612  and  _615
REMARK  237  A    between atoms: _615  and  _616
REMARK  238  A    between atoms: _621  and  _622
REMARK  239  A    between atoms: _624  and  _626
REMARK  240  A    between atoms: _626  and  _627
REMARK  241  A    between atoms: _626  and  _629
REMARK  242  A    between atoms: _632  and  _634
REMARK  243  A    between atoms: _634  and  _635
REMARK  244  A    between atoms: _634  and  _637
REMARK  245  A    between atoms: _637  and  _638
REMARK  246  A    between atoms: _643  and  _645
REMARK  247  A    between atoms: _645  and  _646
REMARK  248  A    between atoms: _649  and  _651
REMARK  249  A    between atoms: _651  and  _652
REMARK  250  A    between atoms: _651  and  _654
REMARK  251  A    between atoms: _654  and  _655
REMARK  252  A    between atoms: _655  and  _656
REMARK  253  A    between atoms: _656  and  _657
REMARK  254  A    between atoms: _666  and  _668
REMARK  255  A    between atoms: _668  and  _669
REMARK  256  A    between atoms: _668  and  _671
REMARK  257  A    between atoms: _671  and  _672
REMARK  258  A    between atoms: _675  and  _677
REMARK  259  A    between atoms: _677  and  _678
REMARK  260  A    between atoms: _677  and  _680
REMARK  261  A    between atoms: _680  and  _681
REMARK  262  A    between atoms: _684  and  _686
REMARK  263  A    between atoms: _686  and  _687
REMARK  264  A    between atoms: _686  and  _689
REMARK  265  A    between atoms: _689  and  _690
REMARK                            x       y       z     vdW  Elec       q    Type
REMARK                         _______ _______ _______ _____ _____    ______ ____
ROOT
ATOM      1  CB  GLN A   1       6.757  28.795  10.480  0.00  0.00    +0.035 C 
ENDROOT
BRANCH   1   2
ATOM      2  CA  GLN A   1       5.923  29.665   9.525  0.00  0.00    +0.134 C 
BRANCH   2   3
ATOM      3  N   GLN A   1       4.896  28.871   8.859  0.00  0.00    -0.239 NA
ATOM      4  H   GLN A   1       4.782  27.871   9.122  0.00  0.00    +0.142 HD
ENDBRANCH   2   3
BRANCH   2   5
ATOM      5  C   GLN A   1       6.949  30.131   8.477  0.00  0.00    +0.224 C 
ATOM      6  O   GLN A   1       7.455  31.252   8.542  0.00  0.00    -0.287 OA
ENDBRANCH   2   5
ENDBRANCH   1   2
BRANCH   1   7
ATOM      7  CG  GLN A   1       6.155  28.446  11.814  0.00  0.00    +0.087 C 
BRANCH   7   8
ATOM      8  CD  GLN A   1       6.989  27.395  12.531  0.00  0.00    +0.219 C 
ATOM      9  NE2 GLN A   1       7.584  27.741  13.669  0.00  0.00    -0.329 N 
ATOM     10 HE21 GLN A   1       8.171  27.051  14.180  0.00  0.00    +0.145 HD
ATOM     11 HE22 GLN A   1       7.463  28.702  14.048  0.00  0.00    +0.145 HD
ATOM     12  OE1 GLN A   1       7.101  26.263  12.036  0.00  0.00    -0.275 OA
ENDBRANCH   7   8
ENDBRANCH   1   7
TORSDOF 5
REMARK  Name = ../refined-set-2016/1b2h/1b2h_pocket.pdb
REMARK  265 active torsions:
REMARK  status: ('A' for Active; 'I' for Inactive)
REMARK    1  A    between atoms: _1  and  _3
REMARK    2  A    between atoms: _3  and  _4
REMARK    3  A    between atoms: _3  and  _6
REMARK    4  A    between atoms: _6  and  _7
REMARK    5  A    between atoms: _12  and  _14
REMARK    6  A    between atoms: _14  and  _15
REMARK    7  A    between atoms: _17  and  _19
REMARK    8  A    between atoms: _19  and  _20
REMARK    9  A    between atoms: _19  and  _22
REMARK   10  A    between atoms: _22  and  _23
REMARK   11  A    between atoms: _25  and  _27
REMARK   12  A    between atoms: _27  and  _28
REMARK   13  A    between atoms: _27  and  _30
REMARK   14  A    between atoms: _30  and  _31
REMARK   15  A    between atoms: _31  and  _32
REMARK   16  A    between atoms: _37  and  _39
REMARK   17  A    between atoms: _39  and  _40
REMARK   18  A    between atoms: _39  and  _42
REMARK   19  A    between atoms: _42  and  _43
REMARK   20  A    between atoms: _46  and  _48
REMARK   21  A    between atoms: _48  and  _49
REMARK   22  A    between atoms: _48  and  _51
REMARK   23  A    between atoms: _52  and  _53
REMARK   24  A    between atoms: _56  and  _58
REMARK   25  A    between atoms: _58  and  _59
REMARK   26  A    between atoms: _61  and  _63
REMARK   27  A    between atoms: _63  and  _64
REMARK   28  A    between atoms: _63  and  _66
REMARK   29  A    between atoms: _70  and  _71
REMARK   30  A    between atoms: _76  and  _78
REMARK   31  A    between atoms: _78  and  _79
REMARK   32  A    between atoms: _78  and  _81
REMARK   33  A    between atoms: _81  and  _82
REMARK   34  A    between atoms: _82  and  _83
REMARK   35  A    between atoms: _86  and  _88
REMARK   36  A    between atoms: _88  and  _89
REMARK   37  A    between atoms: _88  and  _91
REMARK   38  A    between atoms: _91  and  _92
REMARK   39  A    between atoms: _94  and  _96
REMARK   40  A    between atoms: _96  and  _97
REMARK   41  A    between atoms: _96  and  _99
REMARK   42  A    between atoms: _99  and  _100
REMARK   43  A    between atoms: _105  and  _107
REMARK   44  A    between atoms: _107  and  _108
REMARK   45  A    between atoms: _107  and  _110
REMARK   46  A    between atoms: _110  and  _111
REMARK   47  A    between atoms: _111  and  _112
REMARK   48  A    between atoms: _112  and  _113
REMARK   49  A    between atoms: _123  and  _124
REMARK   50  A    between atoms: _129  and  _131
REMARK   51  A    between atoms: _131  and  _132
REMARK   52  A    between atoms: _131  and  _134
REMARK   53  A    between atoms: _134  and  _135
REMARK   54  A    between atoms: _140  and  _141
REMARK   55  A    between atoms: _143  and  _145
REMARK   56  A    between atoms: _145  and  _146
REMARK   57  A    between atoms: _145  and  _148
REMARK   58  A    between atoms: _148  and  _149
REMARK   59  A    between atoms: _154  and  _155
REMARK   60  A    between atoms: _157  and  _159
REMARK   61  A    between atoms: _159  and  _160
REMARK   62  A    between atoms: _159  and  _162
REMARK   63  A    between atoms: _165  and  _167
REMARK   64  A    between atoms: _167  and  _168
REMARK   65  A    between atoms: _167  and  _170
REMARK   66  A    between atoms: _170  and  _171
REMARK   67  A    between atoms: _177  and  _178
REMARK   68  A    between atoms: _183  and  _185
REMARK   69  A    between atoms: _185  and  _186
REMARK   70  A    between atoms: _185  and  _188
REMARK   71  A    between atoms: _188  and  _189
REMARK   72  A    between atoms: _191  and  _193
REMARK   73  A    between atoms: _193  and  _194
REMARK   74  A    between atoms: _193  and  _196
REMARK   75  A    between atoms: _196  and  _197
REMARK   76  A    between atoms: _197  and  _198
REMARK   77  A    between atoms: _201  and  _203
REMARK   78  A    between atoms: _203  and  _204
REMARK   79  A    between atoms: _203  and  _206
REMARK   80  A    between atoms: _206  and  _207
REMARK   81  A    between atoms: _212  and  _213
REMARK   82  A    between atoms: _215  and  _217
REMARK   83  A    between atoms: _217  and  _218
REMARK   84  A    between atoms: _217  and  _220
REMARK   85  A    between atoms: _220  and  _221
REMARK   86  A    between atoms: _226  and  _228
REMARK   87  A    between atoms: _228  and  _229
REMARK   88  A    between atoms: _228  and  _231
REMARK   89  A    between atoms: _231  and  _232
REMARK   90  A    between atoms: _237  and  _239
REMARK   91  A    between atoms: _239  and  _240
REMARK   92  A    between atoms: _239  and  _242
REMARK   93  A    between atoms: _242  and  _243
REMARK   94  A    between atoms: _243  and  _244
REMARK   95  A    between atoms: _246  and  _248
REMARK   96  A    between atoms: _248  and  _249
REMARK   97  A    between atoms: _248  and  _251
REMARK   98  A    between atoms: _251  and  _252
REMARK   99  A    between atoms: _257  and  _258
REMARK  100  A    between atoms: _260  and  _262
REMARK  101  A    between atoms: _262  and  _263
REMARK  102  A    between atoms: _262  and  _265
REMARK  103  A    between atoms: _265  and  _266
REMARK  104  A    between atoms: _269  and  _271
REMARK  105  A    between atoms: _271  and  _272
REMARK  106  A    between atoms: _271  and  _274
REMARK  107  A    between atoms: _274  and  _275
REMARK  108  A    between atoms: _275  and  _492
REMARK  109  A    between atoms: _276  and  _278
REMARK  110  A    between atoms: _278  and  _279
REMARK  111  A    between atoms: _278  and  _281
REMARK  112  A    between atoms: _281  and  _282
REMARK  113  A    between atoms: _285  and  _287
REMARK  114  A    between atoms: _287  and  _288
REMARK  115  A    between atoms: _287  and  _290
REMARK  116  A    between atoms: _290  and  _291
REMARK  117  A    between atoms: _296  and  _297
REMARK  118  A    between atoms: _299  and  _301
REMARK  119  A    between atoms: _301  and  _302
REMARK  120  A    between atoms: _301  and  _304
REMARK  121  A    between atoms: _304  and  _305
REMARK  122  A    between atoms: _310  and  _311
REMARK  123  A    between atoms: _313  and  _315
REMARK  124  A    between atoms: _315  and  _316
REMARK  125  A    between atoms: _315  and  _318
REMARK  126  A    between atoms: _318  and  _319
REMARK  127  A    between atoms: _319  and  _320
REMARK  128  A    between atoms: _323  and  _325
REMARK  129  A    between atoms: _325  and  _326
REMARK  130  A    between atoms: _325  and  _328
REMARK  131  A    between atoms: _328  and  _329
REMARK  132  A    between atoms: _334  and  _335
REMARK  133  A    between atoms: _337  and  _339
REMARK  134  A    between atoms: _339  and  _340
REMARK  135  A    between atoms: _339  and  _342
REMARK  136  A    between atoms: _342  and  _343
REMARK  137  A    between atoms: _348  and  _350
REMARK  138  A    between atoms: _350  and  _351
REMARK  139  A    between atoms: _350  and  _353
REMARK  140  A    between atoms: _353  and  _354
REMARK  141  A    between atoms: _357  and  _359
REMARK  142  A    between atoms: _359  and  _360
REMARK  143  A    between atoms: _359  and  _362
REMARK  144  A    between atoms: _362  and  _363
REMARK  145  A    between atoms: _368  and  _370
REMARK  146  A    between atoms: _370  and  _371
REMARK  147  A    between atoms: _370  and  _373
REMARK  148  A    between atoms: _373  and  _374
REMARK  149  A    between atoms: _384  and  _386
REMARK  150  A    between atoms: _386  and  _387
REMARK  151  A    between atoms: _386  and  _389
REMARK  152  A    between atoms: _389  and  _390
REMARK  153  A    between atoms: _396  and  _398
REMARK  154  A    between atoms: _398  and  _399
REMARK  155  A    between atoms: _398  and  _401
REMARK  156  A    between atoms: _401  and  _402
REMARK  157  A    between atoms: _405  and  _407
REMARK  158  A    between atoms: _407  and  _408
REMARK  159  A    between atoms: _407  and  _410
REMARK  160  A    between atoms: _410  and  _411
REMARK  161  A    between atoms: _414  and  _416
REMARK  162  A    between atoms: _416  and  _417
REMARK  163  A    between atoms: _416  and  _419
REMARK  164  A    between atoms: _419  and  _420
REMARK  165  A    between atoms: _420  and  _421
REMARK  166  A    between atoms: _421  and  _422
REMARK  167  A    between atoms: _431  and  _433
REMARK  168  A    between atoms: _433  and  _434
REMARK  169  A    between atoms: _433  and  _436
REMARK  170  A    between atoms: _436  and  _437
REMARK  171  A    between atoms: _442  and  _444
REMARK  172  A    between atoms: _444  and  _445
REMARK  173  A    between atoms: _444  and  _447
REMARK  174  A    between atoms: _447  and  _448
REMARK  175  A    between atoms: _449  and  _450
REMARK  176  A    between atoms: _459  and  _461
REMARK  177  A    between atoms: _461  and  _462
REMARK  178  A    between atoms: _465  and  _467
REMARK  179  A    between atoms: _467  and  _468
REMARK  180  A    between atoms: _470  and  _472
REMARK  181  A    between atoms: _472  and  _473
REMARK  182  A    between atoms: _472  and  _475
REMARK  183  A    between atoms: _475  and  _476
REMARK  184  A    between atoms: _486  and  _488
REMARK  185  A    between atoms: _488  and  _489
REMARK  186  A    between atoms: _488  and  _491
REMARK  187  A    between atoms: _491  and  _492
REMARK  188  A    between atoms: _493  and  _495
REMARK  189  A    between atoms: _495  and  _496
REMARK  190  A    between atoms: _499  and  _501
REMARK  191  A    between atoms: _501  and  _502
REMARK  192  A    between atoms: _501  and  _504
REMARK  193  A    between atoms: _504  and  _505
REMARK  194  A    between atoms: _508  and  _510
REMARK  195  A    between atoms: _510  and  _511
REMARK  196  A    between atoms: _510  and  _513
REMARK  197  A    between atoms: _513  and  _514
REMARK  198  A    between atoms: _519  and  _520
REMARK  199  A    between atoms: _522  and  _524
REMARK  200  A    between atoms: _524  and  _525
REMARK  201  A    between atoms: _524  and  _527
REMARK  202  A    between atoms: _527  and  _528
REMARK  203  A    between atoms: _530  and  _532
REMARK  204  A    between atoms: _532  and  _533
REMARK  205  A    between atoms: _532  and  _535
REMARK  206  A    between atoms: _535  and  _536
REMARK  207  A    between atoms: _542  and  _544
REMARK  208  A    between atoms: _544  and  _545
REMARK  209  A    between atoms: _544  and  _547
REMARK  210  A    between atoms: _547  and  _548
REMARK  211  A    between atoms: _551  and  _553
REMARK  212  A    between atoms: _553  and  _554
REMARK  213  A    between atoms: _553  and  _556
REMARK  214  A    between atoms: _556  and  _557
REMARK  215  A    between atoms: _559  and  _561
REMARK  216  A    between atoms: _561  and  _562
REMARK  217  A    between atoms: _561  and  _564
REMARK  218  A    between atoms: _564  and  _565
REMARK  219  A    between atoms: _570  and  _572
REMARK  220  A    between atoms: _572  and  _573
REMARK  221  A    between atoms: _572  and  _575
REMARK  222  A    between atoms: _575  and  _576
REMARK  223  A    between atoms: _581  and  _583
REMARK  224  A    between atoms: _583  and  _584
REMARK  225  A    between atoms: _583  and  _586
REMARK  226  A    between atoms: _586  and  _587
REMARK  227  A    between atoms: _590  and  _592
REMARK  228  A    between atoms: _592  and  _593
REMARK  229  A    between atoms: _596  and  _598
REMARK  230  A    between atoms: _598  and  _599
REMARK  231  A    between atoms: _598  and  _601
REMARK  232  A    between atoms: _601  and  _602
REMARK  233  A    between atoms: _607  and  _608
REMARK  234  A    between atoms: _610  and  _612
REMARK  235  A    between atoms: _612  and  _613
REMARK  236  A    between atoms: _612  and  _615
REMARK  237  A    between atoms: _615  and  _616
REMARK  238  A    between atoms: _621  and  _622
REMARK  239  A    between atoms: _624  and  _626
REMARK  240  A    between atoms: _626  and  _627
REMARK  241  A    between atoms: _626  and  _629
REMARK  242  A    between atoms: _632  and  _634
REMARK  243  A    between atoms: _634  and  _635
REMARK  244  A    between atoms: _634  and  _637
REMARK  245  A    between atoms: _637  and  _638
REMARK  246  A    between atoms: _643  and  _645
REMARK  247  A    between atoms: _645  and  _646
REMARK  248  A    between atoms: _649  and  _651
REMARK  249  A    between atoms: _651  and  _652
REMARK  250  A    between atoms: _651  and  _654
REMARK  251  A    between atoms: _654  and  _655
REMARK  252  A    between atoms: _655  and  _656
REMARK  253  A    between atoms: _656  and  _657
REMARK  254  A    between atoms: _666  and  _668
REMARK  255  A    between atoms: _668  and  _669
REMARK  256  A    between atoms: _668  and  _671
REMARK  257  A    between atoms: _671  and  _672
REMARK  258  A    between atoms: _675  and  _677
REMARK  259  A    between atoms: _677  and  _678
REMARK  260  A    between atoms: _677  and  _680
REMARK  261  A    between atoms: _680  and  _681
REMARK  262  A    between atoms: _684  and  _686
REMARK  263  A    between atoms: _686  and  _687
REMARK  264  A    between atoms: _686  and  _689
REMARK  265  A    between atoms: _689  and  _690
REMARK                            x       y       z     vdW  Elec       q    Type
REMARK                         _______ _______ _______ _____ _____    ______ ____
ROOT
ATOM      1  C   VAL A   4       2.299  20.696   9.190  0.00  0.00    +0.244 C 
ATOM      2  N   PRO A   5       1.680  21.877   9.283  0.00  0.00    -0.272 N 
ATOM      3  CD  PRO A   5       1.212  22.542  10.519  0.00  0.00    +0.094 C 
ATOM      4  CG  PRO A   5       0.185  23.537   9.949  0.00  0.00    +0.024 C 
ATOM      5  CB  PRO A   5       0.817  23.977   8.648  0.00  0.00    +0.031 C 
ATOM      6  CA  PRO A   5       1.374  22.675   8.098  0.00  0.00    +0.152 C 
ATOM      7  O   VAL A   4       2.645  20.255   8.086  0.00  0.00    -0.273 OA
ENDROOT
BRANCH   6   8
ATOM      8  C   PRO A   5       2.649  22.931   7.328  0.00  0.00    +0.241 C 
ATOM      9  N   GLU A   6       3.727  23.275   8.062  0.00  0.00    -0.297 N 
ATOM     10  H   GLU A   6       3.659  23.346   9.097  0.00  0.00    +0.150 HD
ATOM     11  O   PRO A   5       2.695  22.767   6.120  0.00  0.00    -0.273 OA
BRANCH   9  12
ATOM     12  CA  GLU A   6       5.000  23.548   7.377  0.00  0.00    +0.149 C 
BRANCH  12  13
ATOM     13  C   GLU A   6       5.551  22.308   6.687  0.00  0.00    +0.241 C 
ATOM     14  N   SER A   7       5.471  21.189   7.408  0.00  0.00    -0.295 N 
ATOM     15  H   SER A   7       5.000  21.208   8.335  0.00  0.00    +0.150 HD
ATOM     16  O   GLU A   6       6.035  22.352   5.544  0.00  0.00    -0.273 OA
BRANCH  14  17
ATOM     17  CA  SER A   7       6.041  19.927   6.909  0.00  0.00    +0.178 C 
BRANCH  17  18
ATOM     18  C   SER A   7       5.244  19.434   5.712  0.00  0.00    +0.243 C 
ATOM     19  N   ASN A   8       3.930  19.662   5.735  0.00  0.00    -0.298 N 
ATOM     20  H   ASN A   8       3.504  20.138   6.556  0.00  0.00    +0.150 HD
ATOM     21  O   SER A   7       5.803  18.770   4.839  0.00  0.00    -0.273 OA
BRANCH  19  22
ATOM     22  CA  ASN A   8       3.082  19.249   4.616  0.00  0.00    +0.146 C 
BRANCH  22  23
ATOM     23  C   ASN A   8       3.592  19.840   3.305  0.00  0.00    +0.227 C 
ATOM     24  O   ASN A   8       3.619  19.161   2.277  0.00  0.00    -0.286 OA
ENDBRANCH  22  23
BRANCH  22  25
ATOM     25  CB  ASN A   8       1.625  19.715   4.841  0.00  0.00    +0.112 C 
BRANCH  25  26
ATOM     26  CG  ASN A   8       0.903  18.882   5.887  0.00  0.00    +0.222 C 
ATOM     27  ND2 ASN A   8      -0.180  19.413   6.428  0.00  0.00    -0.329 N 
ATOM     28 HD21 ASN A   8      -0.701  18.895   7.164  0.00  0.00    +0.145 HD
ATOM     29 HD22 ASN A   8      -0.511  20.349   6.117  0.00  0.00    +0.145 HD
ATOM     30  OD1 ASN A   8       1.341  17.783   6.213  0.00  0.00    -0.275 OA
ENDBRANCH  25  26
ENDBRANCH  22  25
ENDBRANCH  19  22
ENDBRANCH  17  18
BRANCH  17  31
ATOM     31  CB  SER A   7       6.108  18.874   8.029  0.00  0.00    +0.166 C 
BRANCH  31  32
ATOM     32  OG  SER A   7       7.053  19.420   9.003  0.00  0.00    -0.380 OA
ATOM     33  H   SER A   7       6.716  20.289   9.337  0.00  0.00    +0.211 HD
ENDBRANCH  31  32
ENDBRANCH  17  31
ENDBRANCH  14  17
ENDBRANCH  12  13
BRANCH  12  34
ATOM     34  CB  GLU A   6       6.029  24.049   8.413  0.00  0.00    +0.041 C 
BRANCH  34  35
ATOM     35  CG  GLU A   6       5.752  25.426   8.992  0.00  0.00    +0.116 C 
BRANCH  35  36
ATOM     36  CD  GLU A   6       4.565  25.497   9.925  0.00  0.00    +0.365 C 
ATOM     37  OE2 GLU A   6       4.202  24.467  10.537  0.00  0.00    -0.246 OA
ATOM     38  OE1 GLU A   6       3.941  26.566  10.046  0.00  0.00    -0.246 OA
ENDBRANCH  35  36
ENDBRANCH  34  35
ENDBRANCH  12  34
ENDBRANCH   9  12
ENDBRANCH   6   8
BRANCH   1  39
ATOM     39  CA  VAL A   4       2.651  19.969  10.471  0.00  0.00    +0.149 C 
BRANCH  39  41
ATOM     40  C   GLY A   3       4.522  21.358  11.316  0.00  0.00    +0.243 C 
ATOM     41  N   VAL A   4       3.306  20.820  11.469  0.00  0.00    -0.297 N 
ATOM     42  H   VAL A   4       2.793  21.018  12.352  0.00  0.00    +0.150 HD
ATOM     43  O   GLY A   3       5.190  21.156  10.313  0.00  0.00    -0.273 OA
BRANCH  40  44
ATOM     44  CA  GLY A   3       4.998  22.222  12.467  0.00  0.00    +0.176 C 
BRANCH  44  47
ATOM     45  C   GLU A   2       7.317  22.268  13.206  0.00  0.00    +0.245 C 
ATOM     46  O   GLU A   2       7.114  21.279  13.930  0.00  0.00    -0.273 OA
ATOM     47  N   GLY A   3       6.366  22.758  12.421  0.00  0.00    -0.295 N 
ATOM     48  H   GLY A   3       6.592  23.532  11.764  0.00  0.00    +0.150 HD
BRANCH  45  49
ATOM     49  CA  GLU A   2       8.667  22.940  13.263  0.00  0.00    +0.172 C 
BRANCH  49  51
ATOM     50  C   ILE A   1      10.000  24.088  11.647  0.00  0.00    +0.239 C 
ATOM     51  N   GLU A   2       8.777  23.983  12.212  0.00  0.00    -0.294 N 
ATOM     52  H   GLU A   2       7.976  24.585  11.933  0.00  0.00    +0.150 HD
ATOM     53  O   ILE A   1      10.986  23.407  11.936  0.00  0.00    -0.274 OA
BRANCH  50  54
ATOM     54  CA  ILE A   1      10.083  25.160  10.578  0.00  0.00    +0.145 C 
BRANCH  54  55
ATOM     55  N   ILE A   1      11.445  25.641  10.343  0.00  0.00    -0.238 NA
ATOM     56  H   ILE A   1      12.164  24.988   9.972  0.00  0.00    +0.142 HD
ENDBRANCH  54  55
BRANCH  54  57
ATOM     57  CB  ILE A   1       9.476  24.609   9.271  0.00  0.00    +0.025 C 
ATOM     58  CG2 ILE A   1       9.378  25.705   8.198  0.00  0.00    +0.002 C 
BRANCH  57  59
ATOM     59  CG1 ILE A   1      10.338  23.454   8.758  0.00  0.00    +0.002 C 
ATOM     60  CD1 ILE A   1       9.665  22.589   7.701  0.00  0.00    +0.000 C 
ENDBRANCH  57  59
ENDBRANCH  54  57
ENDBRANCH  50  54
ENDBRANCH  49  51
BRANCH  49  61
ATOM     61  CB  GLU A   2       8.878  23.663  14.608  0.00  0.00    +0.009 C 
ATOM     62  CG  GLU A   2       9.253  22.776  15.770  0.00  0.00    +0.084 C 
BRANCH  62  63
ATOM     63  CD  GLU A   2       9.185  23.349  17.171  0.00  0.00    +0.388 C 
ATOM     64  OE2 GLU A   2       9.399  22.537  18.121  0.00  0.00    -0.241 OA
ATOM     65  OE1 GLU A   2       8.935  24.568  17.307  0.00  0.00    -0.241 OA
ENDBRANCH  62  63
ENDBRANCH  49  61
ENDBRANCH  45  49
ENDBRANCH  44  47
ENDBRANCH  40  44
ENDBRANCH  39  41
BRANCH  39  66
ATOM     66  CB  VAL A   4       1.425  19.270  11.109  0.00  0.00    +0.027 C 
ATOM     67  CG2 VAL A   4       1.977  18.210  12.099  0.00  0.00    +0.002 C 
ATOM     68  CG1 VAL A   4       0.580  18.550  10.075  0.00  0.00    +0.002 C 
ENDBRANCH  39  66
ENDBRANCH   1  39
TORSDOF 27
REMARK  Name = ../refined-set-2016/1b2h/1b2h_pocket.pdb
REMARK  265 active torsions:
REMARK  status: ('A' for Active; 'I' for Inactive)
REMARK    1  A    between atoms: _1  and  _3
REMARK    2  A    between atoms: _3  and  _4
REMARK    3  A    between atoms: _3  and  _6
REMARK    4  A    between atoms: _6  and  _7
REMARK    5  A    between atoms: _12  and  _14
REMARK    6  A    between atoms: _14  and  _15
REMARK    7  A    between atoms: _17  and  _19
REMARK    8  A    between atoms: _19  and  _20
REMARK    9  A    between atoms: _19  and  _22
REMARK   10  A    between atoms: _22  and  _23
REMARK   11  A    between atoms: _25  and  _27
REMARK   12  A    between atoms: _27  and  _28
REMARK   13  A    between atoms: _27  and  _30
REMARK   14  A    between atoms: _30  and  _31
REMARK   15  A    between atoms: _31  and  _32
REMARK   16  A    between atoms: _37  and  _39
REMARK   17  A    between atoms: _39  and  _40
REMARK   18  A    between atoms: _39  and  _42
REMARK   19  A    between atoms: _42  and  _43
REMARK   20  A    between atoms: _46  and  _48
REMARK   21  A    between atoms: _48  and  _49
REMARK   22  A    between atoms: _48  and  _51
REMARK   23  A    between atoms: _52  and  _53
REMARK   24  A    between atoms: _56  and  _58
REMARK   25  A    between atoms: _58  and  _59
REMARK   26  A    between atoms: _61  and  _63
REMARK   27  A    between atoms: _63  and  _64
REMARK   28  A    between atoms: _63  and  _66
REMARK   29  A    between atoms: _70  and  _71
REMARK   30  A    between atoms: _76  and  _78
REMARK   31  A    between atoms: _78  and  _79
REMARK   32  A    between atoms: _78  and  _81
REMARK   33  A    between atoms: _81  and  _82
REMARK   34  A    between atoms: _82  and  _83
REMARK   35  A    between atoms: _86  and  _88
REMARK   36  A    between atoms: _88  and  _89
REMARK   37  A    between atoms: _88  and  _91
REMARK   38  A    between atoms: _91  and  _92
REMARK   39  A    between atoms: _94  and  _96
REMARK   40  A    between atoms: _96  and  _97
REMARK   41  A    between atoms: _96  and  _99
REMARK   42  A    between atoms: _99  and  _100
REMARK   43  A    between atoms: _105  and  _107
REMARK   44  A    between atoms: _107  and  _108
REMARK   45  A    between atoms: _107  and  _110
REMARK   46  A    between atoms: _110  and  _111
REMARK   47  A    between atoms: _111  and  _112
REMARK   48  A    between atoms: _112  and  _113
REMARK   49  A    between atoms: _123  and  _124
REMARK   50  A    between atoms: _129  and  _131
REMARK   51  A    between atoms: _131  and  _132
REMARK   52  A    between atoms: _131  and  _134
REMARK   53  A    between atoms: _134  and  _135
REMARK   54  A    between atoms: _140  and  _141
REMARK   55  A    between atoms: _143  and  _145
REMARK   56  A    between atoms: _145  and  _146
REMARK   57  A    between atoms: _145  and  _148
REMARK   58  A    between atoms: _148  and  _149
REMARK   59  A    between atoms: _154  and  _155
REMARK   60  A    between atoms: _157  and  _159
REMARK   61  A    between atoms: _159  and  _160
REMARK   62  A    between atoms: _159  and  _162
REMARK   63  A    between atoms: _165  and  _167
REMARK   64  A    between atoms: _167  and  _168
REMARK   65  A    between atoms: _167  and  _170
REMARK   66  A    between atoms: _170  and  _171
REMARK   67  A    between atoms: _177  and  _178
REMARK   68  A    between atoms: _183  and  _185
REMARK   69  A    between atoms: _185  and  _186
REMARK   70  A    between atoms: _185  and  _188
REMARK   71  A    between atoms: _188  and  _189
REMARK   72  A    between atoms: _191  and  _193
REMARK   73  A    between atoms: _193  and  _194
REMARK   74  A    between atoms: _193  and  _196
REMARK   75  A    between atoms: _196  and  _197
REMARK   76  A    between atoms: _197  and  _198
REMARK   77  A    between atoms: _201  and  _203
REMARK   78  A    between atoms: _203  and  _204
REMARK   79  A    between atoms: _203  and  _206
REMARK   80  A    between atoms: _206  and  _207
REMARK   81  A    between atoms: _212  and  _213
REMARK   82  A    between atoms: _215  and  _217
REMARK   83  A    between atoms: _217  and  _218
REMARK   84  A    between atoms: _217  and  _220
REMARK   85  A    between atoms: _220  and  _221
REMARK   86  A    between atoms: _226  and  _228
REMARK   87  A    between atoms: _228  and  _229
REMARK   88  A    between atoms: _228  and  _231
REMARK   89  A    between atoms: _231  and  _232
REMARK   90  A    between atoms: _237  and  _239
REMARK   91  A    between atoms: _239  and  _240
REMARK   92  A    between atoms: _239  and  _242
REMARK   93  A    between atoms: _242  and  _243
REMARK   94  A    between atoms: _243  and  _244
REMARK   95  A    between atoms: _246  and  _248
REMARK   96  A    between atoms: _248  and  _249
REMARK   97  A    between atoms: _248  and  _251
REMARK   98  A    between atoms: _251  and  _252
REMARK   99  A    between atoms: _257  and  _258
REMARK  100  A    between atoms: _260  and  _262
REMARK  101  A    between atoms: _262  and  _263
REMARK  102  A    between atoms: _262  and  _265
REMARK  103  A    between atoms: _265  and  _266
REMARK  104  A    between atoms: _269  and  _271
REMARK  105  A    between atoms: _271  and  _272
REMARK  106  A    between atoms: _271  and  _274
REMARK  107  A    between atoms: _274  and  _275
REMARK  108  A    between atoms: _275  and  _492
REMARK  109  A    between atoms: _276  and  _278
REMARK  110  A    between atoms: _278  and  _279
REMARK  111  A    between atoms: _278  and  _281
REMARK  112  A    between atoms: _281  and  _282
REMARK  113  A    between atoms: _285  and  _287
REMARK  114  A    between atoms: _287  and  _288
REMARK  115  A    between atoms: _287  and  _290
REMARK  116  A    between atoms: _290  and  _291
REMARK  117  A    between atoms: _296  and  _297
REMARK  118  A    between atoms: _299  and  _301
REMARK  119  A    between atoms: _301  and  _302
REMARK  120  A    between atoms: _301  and  _304
REMARK  121  A    between atoms: _304  and  _305
REMARK  122  A    between atoms: _310  and  _311
REMARK  123  A    between atoms: _313  and  _315
REMARK  124  A    between atoms: _315  and  _316
REMARK  125  A    between atoms: _315  and  _318
REMARK  126  A    between atoms: _318  and  _319
REMARK  127  A    between atoms: _319  and  _320
REMARK  128  A    between atoms: _323  and  _325
REMARK  129  A    between atoms: _325  and  _326
REMARK  130  A    between atoms: _325  and  _328
REMARK  131  A    between atoms: _328  and  _329
REMARK  132  A    between atoms: _334  and  _335
REMARK  133  A    between atoms: _337  and  _339
REMARK  134  A    between atoms: _339  and  _340
REMARK  135  A    between atoms: _339  and  _342
REMARK  136  A    between atoms: _342  and  _343
REMARK  137  A    between atoms: _348  and  _350
REMARK  138  A    between atoms: _350  and  _351
REMARK  139  A    between atoms: _350  and  _353
REMARK  140  A    between atoms: _353  and  _354
REMARK  141  A    between atoms: _357  and  _359
REMARK  142  A    between atoms: _359  and  _360
REMARK  143  A    between atoms: _359  and  _362
REMARK  144  A    between atoms: _362  and  _363
REMARK  145  A    between atoms: _368  and  _370
REMARK  146  A    between atoms: _370  and  _371
REMARK  147  A    between atoms: _370  and  _373
REMARK  148  A    between atoms: _373  and  _374
REMARK  149  A    between atoms: _384  and  _386
REMARK  150  A    between atoms: _386  and  _387
REMARK  151  A    between atoms: _386  and  _389
REMARK  152  A    between atoms: _389  and  _390
REMARK  153  A    between atoms: _396  and  _398
REMARK  154  A    between atoms: _398  and  _399
REMARK  155  A    between atoms: _398  and  _401
REMARK  156  A    between atoms: _401  and  _402
REMARK  157  A    between atoms: _405  and  _407
REMARK  158  A    between atoms: _407  and  _408
REMARK  159  A    between atoms: _407  and  _410
REMARK  160  A    between atoms: _410  and  _411
REMARK  161  A    between atoms: _414  and  _416
REMARK  162  A    between atoms: _416  and  _417
REMARK  163  A    between atoms: _416  and  _419
REMARK  164  A    between atoms: _419  and  _420
REMARK  165  A    between atoms: _420  and  _421
REMARK  166  A    between atoms: _421  and  _422
REMARK  167  A    between atoms: _431  and  _433
REMARK  168  A    between atoms: _433  and  _434
REMARK  169  A    between atoms: _433  and  _436
REMARK  170  A    between atoms: _436  and  _437
REMARK  171  A    between atoms: _442  and  _444
REMARK  172  A    between atoms: _444  and  _445
REMARK  173  A    between atoms: _444  and  _447
REMARK  174  A    between atoms: _447  and  _448
REMARK  175  A    between atoms: _449  and  _450
REMARK  176  A    between atoms: _459  and  _461
REMARK  177  A    between atoms: _461  and  _462
REMARK  178  A    between atoms: _465  and  _467
REMARK  179  A    between atoms: _467  and  _468
REMARK  180  A    between atoms: _470  and  _472
REMARK  181  A    between atoms: _472  and  _473
REMARK  182  A    between atoms: _472  and  _475
REMARK  183  A    between atoms: _475  and  _476
REMARK  184  A    between atoms: _486  and  _488
REMARK  185  A    between atoms: _488  and  _489
REMARK  186  A    between atoms: _488  and  _491
REMARK  187  A    between atoms: _491  and  _492
REMARK  188  A    between atoms: _493  and  _495
REMARK  189  A    between atoms: _495  and  _496
REMARK  190  A    between atoms: _499  and  _501
REMARK  191  A    between atoms: _501  and  _502
REMARK  192  A    between atoms: _501  and  _504
REMARK  193  A    between atoms: _504  and  _505
REMARK  194  A    between atoms: _508  and  _510
REMARK  195  A    between atoms: _510  and  _511
REMARK  196  A    between atoms: _510  and  _513
REMARK  197  A    between atoms: _513  and  _514
REMARK  198  A    between atoms: _519  and  _520
REMARK  199  A    between atoms: _522  and  _524
REMARK  200  A    between atoms: _524  and  _525
REMARK  201  A    between atoms: _524  and  _527
REMARK  202  A    between atoms: _527  and  _528
REMARK  203  A    between atoms: _530  and  _532
REMARK  204  A    between atoms: _532  and  _533
REMARK  205  A    between atoms: _532  and  _535
REMARK  206  A    between atoms: _535  and  _536
REMARK  207  A    between atoms: _542  and  _544
REMARK  208  A    between atoms: _544  and  _545
REMARK  209  A    between atoms: _544  and  _547
REMARK  210  A    between atoms: _547  and  _548
REMARK  211  A    between atoms: _551  and  _553
REMARK  212  A    between atoms: _553  and  _554
REMARK  213  A    between atoms: _553  and  _556
REMARK  214  A    between atoms: _556  and  _557
REMARK  215  A    between atoms: _559  and  _561
REMARK  216  A    between atoms: _561  and  _562
REMARK  217  A    between atoms: _561  and  _564
REMARK  218  A    between atoms: _564  and  _565
REMARK  219  A    between atoms: _570  and  _572
REMARK  220  A    between atoms: _572  and  _573
REMARK  221  A    between atoms: _572  and  _575
REMARK  222  A    between atoms: _575  and  _576
REMARK  223  A    between atoms: _581  and  _583
REMARK  224  A    between atoms: _583  and  _584
REMARK  225  A    between atoms: _583  and  _586
REMARK  226  A    between atoms: _586  and  _587
REMARK  227  A    between atoms: _590  and  _592
REMARK  228  A    between atoms: _592  and  _593
REMARK  229  A    between atoms: _596  and  _598
REMARK  230  A    between atoms: _598  and  _599
REMARK  231  A    between atoms: _598  and  _601
REMARK  232  A    between atoms: _601  and  _602
REMARK  233  A    between atoms: _607  and  _608
REMARK  234  A    between atoms: _610  and  _612
REMARK  235  A    between atoms: _612  and  _613
REMARK  236  A    between atoms: _612  and  _615
REMARK  237  A    between atoms: _615  and  _616
REMARK  238  A    between atoms: _621  and  _622
REMARK  239  A    between atoms: _624  and  _626
REMARK  240  A    between atoms: _626  and  _627
REMARK  241  A    between atoms: _626  and  _629
REMARK  242  A    between atoms: _632  and  _634
REMARK  243  A    between atoms: _634  and  _635
REMARK  244  A    between atoms: _634  and  _637
REMARK  245  A    between atoms: _637  and  _638
REMARK  246  A    between atoms: _643  and  _645
REMARK  247  A    between atoms: _645  and  _646
REMARK  248  A    between atoms: _649  and  _651
REMARK  249  A    between atoms: _651  and  _652
REMARK  250  A    between atoms: _651  and  _654
REMARK  251  A    between atoms: _654  and  _655
REMARK  252  A    between atoms: _655  and  _656
REMARK  253  A    between atoms: _656  and  _657
REMARK  254  A    between atoms: _666  and  _668
REMARK  255  A    between atoms: _668  and  _669
REMARK  256  A    between atoms: _668  and  _671
REMARK  257  A    between atoms: _671  and  _672
REMARK  258  A    between atoms: _675  and  _677
REMARK  259  A    between atoms: _677  and  _678
REMARK  260  A    between atoms: _677  and  _680
REMARK  261  A    between atoms: _680  and  _681
REMARK  262  A    between atoms: _684  and  _686
REMARK  263  A    between atoms: _686  and  _687
REMARK  264  A    between atoms: _686  and  _689
REMARK  265  A    between atoms: _689  and  _690
REMARK                            x       y       z     vdW  Elec       q    Type
REMARK                         _______ _______ _______ _____ _____    ______ ____
ROOT
ATOM      1  NE  ARG A   1       4.855  14.814   4.151  0.00  0.00    -0.265 N 
ATOM      2  CZ  ARG A   1       4.311  15.481   5.165  0.00  0.00    +0.342 C 
ATOM      3  NH2 ARG A   1       5.049  15.812   6.232  0.00  0.00    -0.292 N 
ATOM      4 HH21 ARG A   1       4.617  16.334   7.021  0.00  0.00    +0.255 HD
ATOM      5 HH22 ARG A   1       6.054  15.548   6.271  0.00  0.00    +0.255 HD
ATOM      6  NH1 ARG A   1       3.005  15.742   5.115  0.00  0.00    -0.292 N 
ATOM      7 HH11 ARG A   1       2.548  16.262   5.892  0.00  0.00    +0.255 HD
ATOM      8 HH12 ARG A   1       2.442  15.426   4.299  0.00  0.00    +0.255 HD
ATOM      9  HE  ARG A   1       4.227  14.536   3.370  0.00  0.00    +0.259 HD
ENDROOT
BRANCH   1  10
ATOM     10  CD  ARG A   1       6.270  14.439   4.046  0.00  0.00    +0.174 C 
BRANCH  10  11
ATOM     11  CG  ARG A   1       7.092  15.684   3.625  0.00  0.00    +0.045 C 
BRANCH  11  12
ATOM     12  CB  ARG A   1       6.717  16.160   2.224  0.00  0.00    +0.029 C 
BRANCH  12  13
ATOM     13  CA  ARG A   1       7.668  17.241   1.651  0.00  0.00    +0.133 C 
BRANCH  13  14
ATOM     14  N   ARG A   1       7.485  18.531   2.305  0.00  0.00    -0.239 NA
ATOM     15  H   ARG A   1       6.713  18.657   2.991  0.00  0.00    +0.142 HD
ENDBRANCH  13  14
BRANCH  13  16
ATOM     16  C   ARG A   1       7.512  17.305   0.132  0.00  0.00    +0.224 C 
ATOM     17  O   ARG A   1       8.092  16.445  -0.541  0.00  0.00    -0.287 OA
ENDBRANCH  13  16
ENDBRANCH  12  13
ENDBRANCH  11  12
ENDBRANCH  10  11
ENDBRANCH   1  10
TORSDOF 6
REMARK  Name = ../refined-set-2016/1b2h/1b2h_pocket.pdb
REMARK  265 active torsions:
REMARK  status: ('A' for Active; 'I' for Inactive)
REMARK    1  A    between atoms: _1  and  _3
REMARK    2  A    between atoms: _3  and  _4
REMARK    3  A    between atoms: _3  and  _6
REMARK    4  A    between atoms: _6  and  _7
REMARK    5  A    between atoms: _12  and  _14
REMARK    6  A    between atoms: _14  and  _15
REMARK    7  A    between atoms: _17  and  _19
REMARK    8  A    between atoms: _19  and  _20
REMARK    9  A    between atoms: _19  and  _22
REMARK   10  A    between atoms: _22  and  _23
REMARK   11  A    between atoms: _25  and  _27
REMARK   12  A    between atoms: _27  and  _28
REMARK   13  A    between atoms: _27  and  _30
REMARK   14  A    between atoms: _30  and  _31
REMARK   15  A    between atoms: _31  and  _32
REMARK   16  A    between atoms: _37  and  _39
REMARK   17  A    between atoms: _39  and  _40
REMARK   18  A    between atoms: _39  and  _42
REMARK   19  A    between atoms: _42  and  _43
REMARK   20  A    between atoms: _46  and  _48
REMARK   21  A    between atoms: _48  and  _49
REMARK   22  A    between atoms: _48  and  _51
REMARK   23  A    between atoms: _52  and  _53
REMARK   24  A    between atoms: _56  and  _58
REMARK   25  A    between atoms: _58  and  _59
REMARK   26  A    between atoms: _61  and  _63
REMARK   27  A    between atoms: _63  and  _64
REMARK   28  A    between atoms: _63  and  _66
REMARK   29  A    between atoms: _70  and  _71
REMARK   30  A    between atoms: _76  and  _78
REMARK   31  A    between atoms: _78  and  _79
REMARK   32  A    between atoms: _78  and  _81
REMARK   33  A    between atoms: _81  and  _82
REMARK   34  A    between atoms: _82  and  _83
REMARK   35  A    between atoms: _86  and  _88
REMARK   36  A    between atoms: _88  and  _89
REMARK   37  A    between atoms: _88  and  _91
REMARK   38  A    between atoms: _91  and  _92
REMARK   39  A    between atoms: _94  and  _96
REMARK   40  A    between atoms: _96  and  _97
REMARK   41  A    between atoms: _96  and  _99
REMARK   42  A    between atoms: _99  and  _100
REMARK   43  A    between atoms: _105  and  _107
REMARK   44  A    between atoms: _107  and  _108
REMARK   45  A    between atoms: _107  and  _110
REMARK   46  A    between atoms: _110  and  _111
REMARK   47  A    between atoms: _111  and  _112
REMARK   48  A    between atoms: _112  and  _113
REMARK   49  A    between atoms: _123  and  _124
REMARK   50  A    between atoms: _129  and  _131
REMARK   51  A    between atoms: _131  and  _132
REMARK   52  A    between atoms: _131  and  _134
REMARK   53  A    between atoms: _134  and  _135
REMARK   54  A    between atoms: _140  and  _141
REMARK   55  A    between atoms: _143  and  _145
REMARK   56  A    between atoms: _145  and  _146
REMARK   57  A    between atoms: _145  and  _148
REMARK   58  A    between atoms: _148  and  _149
REMARK   59  A    between atoms: _154  and  _155
REMARK   60  A    between atoms: _157  and  _159
REMARK   61  A    between atoms: _159  and  _160
REMARK   62  A    between atoms: _159  and  _162
REMARK   63  A    between atoms: _165  and  _167
REMARK   64  A    between atoms: _167  and  _168
REMARK   65  A    between atoms: _167  and  _170
REMARK   66  A    between atoms: _170  and  _171
REMARK   67  A    between atoms: _177  and  _178
REMARK   68  A    between atoms: _183  and  _185
REMARK   69  A    between atoms: _185  and  _186
REMARK   70  A    between atoms: _185  and  _188
REMARK   71  A    between atoms: _188  and  _189
REMARK   72  A    between atoms: _191  and  _193
REMARK   73  A    between atoms: _193  and  _194
REMARK   74  A    between atoms: _193  and  _196
REMARK   75  A    between atoms: _196  and  _197
REMARK   76  A    between atoms: _197  and  _198
REMARK   77  A    between atoms: _201  and  _203
REMARK   78  A    between atoms: _203  and  _204
REMARK   79  A    between atoms: _203  and  _206
REMARK   80  A    between atoms: _206  and  _207
REMARK   81  A    between atoms: _212  and  _213
REMARK   82  A    between atoms: _215  and  _217
REMARK   83  A    between atoms: _217  and  _218
REMARK   84  A    between atoms: _217  and  _220
REMARK   85  A    between atoms: _220  and  _221
REMARK   86  A    between atoms: _226  and  _228
REMARK   87  A    between atoms: _228  and  _229
REMARK   88  A    between atoms: _228  and  _231
REMARK   89  A    between atoms: _231  and  _232
REMARK   90  A    between atoms: _237  and  _239
REMARK   91  A    between atoms: _239  and  _240
REMARK   92  A    between atoms: _239  and  _242
REMARK   93  A    between atoms: _242  and  _243
REMARK   94  A    between atoms: _243  and  _244
REMARK   95  A    between atoms: _246  and  _248
REMARK   96  A    between atoms: _248  and  _249
REMARK   97  A    between atoms: _248  and  _251
REMARK   98  A    between atoms: _251  and  _252
REMARK   99  A    between atoms: _257  and  _258
REMARK  100  A    between atoms: _260  and  _262
REMARK  101  A    between atoms: _262  and  _263
REMARK  102  A    between atoms: _262  and  _265
REMARK  103  A    between atoms: _265  and  _266
REMARK  104  A    between atoms: _269  and  _271
REMARK  105  A    between atoms: _271  and  _272
REMARK  106  A    between atoms: _271  and  _274
REMARK  107  A    between atoms: _274  and  _275
REMARK  108  A    between atoms: _275  and  _492
REMARK  109  A    between atoms: _276  and  _278
REMARK  110  A    between atoms: _278  and  _279
REMARK  111  A    between atoms: _278  and  _281
REMARK  112  A    between atoms: _281  and  _282
REMARK  113  A    between atoms: _285  and  _287
REMARK  114  A    between atoms: _287  and  _288
REMARK  115  A    between atoms: _287  and  _290
REMARK  116  A    between atoms: _290  and  _291
REMARK  117  A    between atoms: _296  and  _297
REMARK  118  A    between atoms: _299  and  _301
REMARK  119  A    between atoms: _301  and  _302
REMARK  120  A    between atoms: _301  and  _304
REMARK  121  A    between atoms: _304  and  _305
REMARK  122  A    between atoms: _310  and  _311
REMARK  123  A    between atoms: _313  and  _315
REMARK  124  A    between atoms: _315  and  _316
REMARK  125  A    between atoms: _315  and  _318
REMARK  126  A    between atoms: _318  and  _319
REMARK  127  A    between atoms: _319  and  _320
REMARK  128  A    between atoms: _323  and  _325
REMARK  129  A    between atoms: _325  and  _326
REMARK  130  A    between atoms: _325  and  _328
REMARK  131  A    between atoms: _328  and  _329
REMARK  132  A    between atoms: _334  and  _335
REMARK  133  A    between atoms: _337  and  _339
REMARK  134  A    between atoms: _339  and  _340
REMARK  135  A    between atoms: _339  and  _342
REMARK  136  A    between atoms: _342  and  _343
REMARK  137  A    between atoms: _348  and  _350
REMARK  138  A    between atoms: _350  and  _351
REMARK  139  A    between atoms: _350  and  _353
REMARK  140  A    between atoms: _353  and  _354
REMARK  141  A    between atoms: _357  and  _359
REMARK  142  A    between atoms: _359  and  _360
REMARK  143  A    between atoms: _359  and  _362
REMARK  144  A    between atoms: _362  and  _363
REMARK  145  A    between atoms: _368  and  _370
REMARK  146  A    between atoms: _370  and  _371
REMARK  147  A    between atoms: _370  and  _373
REMARK  148  A    between atoms: _373  and  _374
REMARK  149  A    between atoms: _384  and  _386
REMARK  150  A    between atoms: _386  and  _387
REMARK  151  A    between atoms: _386  and  _389
REMARK  152  A    between atoms: _389  and  _390
REMARK  153  A    between atoms: _396  and  _398
REMARK  154  A    between atoms: _398  and  _399
REMARK  155  A    between atoms: _398  and  _401
REMARK  156  A    between atoms: _401  and  _402
REMARK  157  A    between atoms: _405  and  _407
REMARK  158  A    between atoms: _407  and  _408
REMARK  159  A    between atoms: _407  and  _410
REMARK  160  A    between atoms: _410  and  _411
REMARK  161  A    between atoms: _414  and  _416
REMARK  162  A    between atoms: _416  and  _417
REMARK  163  A    between atoms: _416  and  _419
REMARK  164  A    between atoms: _419  and  _420
REMARK  165  A    between atoms: _420  and  _421
REMARK  166  A    between atoms: _421  and  _422
REMARK  167  A    between atoms: _431  and  _433
REMARK  168  A    between atoms: _433  and  _434
REMARK  169  A    between atoms: _433  and  _436
REMARK  170  A    between atoms: _436  and  _437
REMARK  171  A    between atoms: _442  and  _444
REMARK  172  A    between atoms: _444  and  _445
REMARK  173  A    between atoms: _444  and  _447
REMARK  174  A    between atoms: _447  and  _448
REMARK  175  A    between atoms: _449  and  _450
REMARK  176  A    between atoms: _459  and  _461
REMARK  177  A    between atoms: _461  and  _462
REMARK  178  A    between atoms: _465  and  _467
REMARK  179  A    between atoms: _467  and  _468
REMARK  180  A    between atoms: _470  and  _472
REMARK  181  A    between atoms: _472  and  _473
REMARK  182  A    between atoms: _472  and  _475
REMARK  183  A    between atoms: _475  and  _476
REMARK  184  A    between atoms: _486  and  _488
REMARK  185  A    between atoms: _488  and  _489
REMARK  186  A    between atoms: _488  and  _491
REMARK  187  A    between atoms: _491  and  _492
REMARK  188  A    between atoms: _493  and  _495
REMARK  189  A    between atoms: _495  and  _496
REMARK  190  A    between atoms: _499  and  _501
REMARK  191  A    between atoms: _501  and  _502
REMARK  192  A    between atoms: _501  and  _504
REMARK  193  A    between atoms: _504  and  _505
REMARK  194  A    between atoms: _508  and  _510
REMARK  195  A    between atoms: _510  and  _511
REMARK  196  A    between atoms: _510  and  _513
REMARK  197  A    between atoms: _513  and  _514
REMARK  198  A    between atoms: _519  and  _520
REMARK  199  A    between atoms: _522  and  _524
REMARK  200  A    between atoms: _524  and  _525
REMARK  201  A    between atoms: _524  and  _527
REMARK  202  A    between atoms: _527  and  _528
REMARK  203  A    between atoms: _530  and  _532
REMARK  204  A    between atoms: _532  and  _533
REMARK  205  A    between atoms: _532  and  _535
REMARK  206  A    between atoms: _535  and  _536
REMARK  207  A    between atoms: _542  and  _544
REMARK  208  A    between atoms: _544  and  _545
REMARK  209  A    between atoms: _544  and  _547
REMARK  210  A    between atoms: _547  and  _548
REMARK  211  A    between atoms: _551  and  _553
REMARK  212  A    between atoms: _553  and  _554
REMARK  213  A    between atoms: _553  and  _556
REMARK  214  A    between atoms: _556  and  _557
REMARK  215  A    between atoms: _559  and  _561
REMARK  216  A    between atoms: _561  and  _562
REMARK  217  A    between atoms: _561  and  _564
REMARK  218  A    between atoms: _564  and  _565
REMARK  219  A    between atoms: _570  and  _572
REMARK  220  A    between atoms: _572  and  _573
REMARK  221  A    between atoms: _572  and  _575
REMARK  222  A    between atoms: _575  and  _576
REMARK  223  A    between atoms: _581  and  _583
REMARK  224  A    between atoms: _583  and  _584
REMARK  225  A    between atoms: _583  and  _586
REMARK  226  A    between atoms: _586  and  _587
REMARK  227  A    between atoms: _590  and  _592
REMARK  228  A    between atoms: _592  and  _593
REMARK  229  A    between atoms: _596  and  _598
REMARK  230  A    between atoms: _598  and  _599
REMARK  231  A    between atoms: _598  and  _601
REMARK  232  A    between atoms: _601  and  _602
REMARK  233  A    between atoms: _607  and  _608
REMARK  234  A    between atoms: _610  and  _612
REMARK  235  A    between atoms: _612  and  _613
REMARK  236  A    between atoms: _612  and  _615
REMARK  237  A    between atoms: _615  and  _616
REMARK  238  A    between atoms: _621  and  _622
REMARK  239  A    between atoms: _624  and  _626
REMARK  240  A    between atoms: _626  and  _627
REMARK  241  A    between atoms: _626  and  _629
REMARK  242  A    between atoms: _632  and  _634
REMARK  243  A    between atoms: _634  and  _635
REMARK  244  A    between atoms: _634  and  _637
REMARK  245  A    between atoms: _637  and  _638
REMARK  246  A    between atoms: _643  and  _645
REMARK  247  A    between atoms: _645  and  _646
REMARK  248  A    between atoms: _649  and  _651
REMARK  249  A    between atoms: _651  and  _652
REMARK  250  A    between atoms: _651  and  _654
REMARK  251  A    between atoms: _654  and  _655
REMARK  252  A    between atoms: _655  and  _656
REMARK  253  A    between atoms: _656  and  _657
REMARK  254  A    between atoms: _666  and  _668
REMARK  255  A    between atoms: _668  and  _669
REMARK  256  A    between atoms: _668  and  _671
REMARK  257  A    between atoms: _671  and  _672
REMARK  258  A    between atoms: _675  and  _677
REMARK  259  A    between atoms: _677  and  _678
REMARK  260  A    between atoms: _677  and  _680
REMARK  261  A    between atoms: _680  and  _681
REMARK  262  A    between atoms: _684  and  _686
REMARK  263  A    between atoms: _686  and  _687
REMARK  264  A    between atoms: _686  and  _689
REMARK  265  A    between atoms: _689  and  _690
REMARK                            x       y       z     vdW  Elec       q    Type
REMARK                         _______ _______ _______ _____ _____    ______ ____
ROOT
ATOM      1  CA  TYR A   2      15.033  21.593  15.030  0.00  0.00    +0.141 C 
ENDROOT
BRANCH   1   4
ATOM      2  C   PRO A   1      14.109  23.543  16.221  0.00  0.00    +0.239 C 
ATOM      3  O   PRO A   1      13.804  22.855  17.210  0.00  0.00    -0.274 OA
ATOM      4  N   TYR A   2      14.672  22.989  15.135  0.00  0.00    -0.298 N 
ATOM      5  H   TYR A   2      14.860  23.603  14.317  0.00  0.00    +0.150 HD
BRANCH   2   7
ATOM      6  N   PRO A   1      14.542  25.697  15.144  0.00  0.00    -0.210 NA
ATOM      7  CA  PRO A   1      13.790  25.039  16.213  0.00  0.00    +0.149 C 
ATOM      8  CB  PRO A   1      12.331  25.311  15.833  0.00  0.00    +0.028 C 
ATOM      9  CG  PRO A   1      12.335  25.529  14.357  0.00  0.00    +0.021 C 
ATOM     10  CD  PRO A   1      13.674  26.241  14.091  0.00  0.00    +0.089 C 
ENDBRANCH   2   7
ENDBRANCH   1   4
BRANCH   1  11
ATOM     11  C   TYR A   2      16.550  21.354  15.026  0.00  0.00    +0.227 C 
ATOM     12  O   TYR A   2      17.049  20.293  14.632  0.00  0.00    -0.286 OA
ENDBRANCH   1  11
BRANCH   1  13
ATOM     13  CB  TYR A   2      14.451  20.900  13.797  0.00  0.00    +0.054 C 
BRANCH  13  14
ATOM     14  CG  TYR A   2      13.126  20.211  14.059  0.00  0.00    -0.020 A 
ATOM     15  CD2 TYR A   2      13.169  18.961  14.665  0.00  0.00    -0.001 A 
ATOM     16  CE2 TYR A   2      12.019  18.251  14.941  0.00  0.00    +0.036 A 
ATOM     17  CZ  TYR A   2      10.797  18.764  14.585  0.00  0.00    +0.134 A 
ATOM     18  CE1 TYR A   2      10.721  20.014  13.991  0.00  0.00    +0.036 A 
ATOM     19  CD1 TYR A   2      11.883  20.723  13.720  0.00  0.00    -0.001 A 
BRANCH  17  20
ATOM     20  OH  TYR A   2       9.680  18.002  14.830  0.00  0.00    -0.506 OA
ATOM     21  HH  TYR A   2       9.752  17.145  14.339  0.00  0.00    +0.292 HD
ENDBRANCH  17  20
ENDBRANCH  13  14
ENDBRANCH   1  13
TORSDOF 6
REMARK  Name = ../refined-set-2016/1b2h/1b2h_pocket.pdb
REMARK  265 active torsions:
REMARK  status: ('A' for Active; 'I' for Inactive)
REMARK    1  A    between atoms: _1  and  _3
REMARK    2  A    between atoms: _3  and  _4
REMARK    3  A    between atoms: _3  and  _6
REMARK    4  A    between atoms: _6  and  _7
REMARK    5  A    between atoms: _12  and  _14
REMARK    6  A    between atoms: _14  and  _15
REMARK    7  A    between atoms: _17  and  _19
REMARK    8  A    between atoms: _19  and  _20
REMARK    9  A    between atoms: _19  and  _22
REMARK   10  A    between atoms: _22  and  _23
REMARK   11  A    between atoms: _25  and  _27
REMARK   12  A    between atoms: _27  and  _28
REMARK   13  A    between atoms: _27  and  _30
REMARK   14  A    between atoms: _30  and  _31
REMARK   15  A    between atoms: _31  and  _32
REMARK   16  A    between atoms: _37  and  _39
REMARK   17  A    between atoms: _39  and  _40
REMARK   18  A    between atoms: _39  and  _42
REMARK   19  A    between atoms: _42  and  _43
REMARK   20  A    between atoms: _46  and  _48
REMARK   21  A    between atoms: _48  and  _49
REMARK   22  A    between atoms: _48  and  _51
REMARK   23  A    between atoms: _52  and  _53
REMARK   24  A    between atoms: _56  and  _58
REMARK   25  A    between atoms: _58  and  _59
REMARK   26  A    between atoms: _61  and  _63
REMARK   27  A    between atoms: _63  and  _64
REMARK   28  A    between atoms: _63  and  _66
REMARK   29  A    between atoms: _70  and  _71
REMARK   30  A    between atoms: _76  and  _78
REMARK   31  A    between atoms: _78  and  _79
REMARK   32  A    between atoms: _78  and  _81
REMARK   33  A    between atoms: _81  and  _82
REMARK   34  A    between atoms: _82  and  _83
REMARK   35  A    between atoms: _86  and  _88
REMARK   36  A    between atoms: _88  and  _89
REMARK   37  A    between atoms: _88  and  _91
REMARK   38  A    between atoms: _91  and  _92
REMARK   39  A    between atoms: _94  and  _96
REMARK   40  A    between atoms: _96  and  _97
REMARK   41  A    between atoms: _96  and  _99
REMARK   42  A    between atoms: _99  and  _100
REMARK   43  A    between atoms: _105  and  _107
REMARK   44  A    between atoms: _107  and  _108
REMARK   45  A    between atoms: _107  and  _110
REMARK   46  A    between atoms: _110  and  _111
REMARK   47  A    between atoms: _111  and  _112
REMARK   48  A    between atoms: _112  and  _113
REMARK   49  A    between atoms: _123  and  _124
REMARK   50  A    between atoms: _129  and  _131
REMARK   51  A    between atoms: _131  and  _132
REMARK   52  A    between atoms: _131  and  _134
REMARK   53  A    between atoms: _134  and  _135
REMARK   54  A    between atoms: _140  and  _141
REMARK   55  A    between atoms: _143  and  _145
REMARK   56  A    between atoms: _145  and  _146
REMARK   57  A    between atoms: _145  and  _148
REMARK   58  A    between atoms: _148  and  _149
REMARK   59  A    between atoms: _154  and  _155
REMARK   60  A    between atoms: _157  and  _159
REMARK   61  A    between atoms: _159  and  _160
REMARK   62  A    between atoms: _159  and  _162
REMARK   63  A    between atoms: _165  and  _167
REMARK   64  A    between atoms: _167  and  _168
REMARK   65  A    between atoms: _167  and  _170
REMARK   66  A    between atoms: _170  and  _171
REMARK   67  A    between atoms: _177  and  _178
REMARK   68  A    between atoms: _183  and  _185
REMARK   69  A    between atoms: _185  and  _186
REMARK   70  A    between atoms: _185  and  _188
REMARK   71  A    between atoms: _188  and  _189
REMARK   72  A    between atoms: _191  and  _193
REMARK   73  A    between atoms: _193  and  _194
REMARK   74  A    between atoms: _193  and  _196
REMARK   75  A    between atoms: _196  and  _197
REMARK   76  A    between atoms: _197  and  _198
REMARK   77  A    between atoms: _201  and  _203
REMARK   78  A    between atoms: _203  and  _204
REMARK   79  A    between atoms: _203  and  _206
REMARK   80  A    between atoms: _206  and  _207
REMARK   81  A    between atoms: _212  and  _213
REMARK   82  A    between atoms: _215  and  _217
REMARK   83  A    between atoms: _217  and  _218
REMARK   84  A    between atoms: _217  and  _220
REMARK   85  A    between atoms: _220  and  _221
REMARK   86  A    between atoms: _226  and  _228
REMARK   87  A    between atoms: _228  and  _229
REMARK   88  A    between atoms: _228  and  _231
REMARK   89  A    between atoms: _231  and  _232
REMARK   90  A    between atoms: _237  and  _239
REMARK   91  A    between atoms: _239  and  _240
REMARK   92  A    between atoms: _239  and  _242
REMARK   93  A    between atoms: _242  and  _243
REMARK   94  A    between atoms: _243  and  _244
REMARK   95  A    between atoms: _246  and  _248
REMARK   96  A    between atoms: _248  and  _249
REMARK   97  A    between atoms: _248  and  _251
REMARK   98  A    between atoms: _251  and  _252
REMARK   99  A    between atoms: _257  and  _258
REMARK  100  A    between atoms: _260  and  _262
REMARK  101  A    between atoms: _262  and  _263
REMARK  102  A    between atoms: _262  and  _265
REMARK  103  A    between atoms: _265  and  _266
REMARK  104  A    between atoms: _269  and  _271
REMARK  105  A    between atoms: _271  and  _272
REMARK  106  A    between atoms: _271  and  _274
REMARK  107  A    between atoms: _274  and  _275
REMARK  108  A    between atoms: _275  and  _492
REMARK  109  A    between atoms: _276  and  _278
REMARK  110  A    between atoms: _278  and  _279
REMARK  111  A    between atoms: _278  and  _281
REMARK  112  A    between atoms: _281  and  _282
REMARK  113  A    between atoms: _285  and  _287
REMARK  114  A    between atoms: _287  and  _288
REMARK  115  A    between atoms: _287  and  _290
REMARK  116  A    between atoms: _290  and  _291
REMARK  117  A    between atoms: _296  and  _297
REMARK  118  A    between atoms: _299  and  _301
REMARK  119  A    between atoms: _301  and  _302
REMARK  120  A    between atoms: _301  and  _304
REMARK  121  A    between atoms: _304  and  _305
REMARK  122  A    between atoms: _310  and  _311
REMARK  123  A    between atoms: _313  and  _315
REMARK  124  A    between atoms: _315  and  _316
REMARK  125  A    between atoms: _315  and  _318
REMARK  126  A    between atoms: _318  and  _319
REMARK  127  A    between atoms: _319  and  _320
REMARK  128  A    between atoms: _323  and  _325
REMARK  129  A    between atoms: _325  and  _326
REMARK  130  A    between atoms: _325  and  _328
REMARK  131  A    between atoms: _328  and  _329
REMARK  132  A    between atoms: _334  and  _335
REMARK  133  A    between atoms: _337  and  _339
REMARK  134  A    between atoms: _339  and  _340
REMARK  135  A    between atoms: _339  and  _342
REMARK  136  A    between atoms: _342  and  _343
REMARK  137  A    between atoms: _348  and  _350
REMARK  138  A    between atoms: _350  and  _351
REMARK  139  A    between atoms: _350  and  _353
REMARK  140  A    between atoms: _353  and  _354
REMARK  141  A    between atoms: _357  and  _359
REMARK  142  A    between atoms: _359  and  _360
REMARK  143  A    between atoms: _359  and  _362
REMARK  144  A    between atoms: _362  and  _363
REMARK  145  A    between atoms: _368  and  _370
REMARK  146  A    between atoms: _370  and  _371
REMARK  147  A    between atoms: _370  and  _373
REMARK  148  A    between atoms: _373  and  _374
REMARK  149  A    between atoms: _384  and  _386
REMARK  150  A    between atoms: _386  and  _387
REMARK  151  A    between atoms: _386  and  _389
REMARK  152  A    between atoms: _389  and  _390
REMARK  153  A    between atoms: _396  and  _398
REMARK  154  A    between atoms: _398  and  _399
REMARK  155  A    between atoms: _398  and  _401
REMARK  156  A    between atoms: _401  and  _402
REMARK  157  A    between atoms: _405  and  _407
REMARK  158  A    between atoms: _407  and  _408
REMARK  159  A    between atoms: _407  and  _410
REMARK  160  A    between atoms: _410  and  _411
REMARK  161  A    between atoms: _414  and  _416
REMARK  162  A    between atoms: _416  and  _417
REMARK  163  A    between atoms: _416  and  _419
REMARK  164  A    between atoms: _419  and  _420
REMARK  165  A    between atoms: _420  and  _421
REMARK  166  A    between atoms: _421  and  _422
REMARK  167  A    between atoms: _431  and  _433
REMARK  168  A    between atoms: _433  and  _434
REMARK  169  A    between atoms: _433  and  _436
REMARK  170  A    between atoms: _436  and  _437
REMARK  171  A    between atoms: _442  and  _444
REMARK  172  A    between atoms: _444  and  _445
REMARK  173  A    between atoms: _444  and  _447
REMARK  174  A    between atoms: _447  and  _448
REMARK  175  A    between atoms: _449  and  _450
REMARK  176  A    between atoms: _459  and  _461
REMARK  177  A    between atoms: _461  and  _462
REMARK  178  A    between atoms: _465  and  _467
REMARK  179  A    between atoms: _467  and  _468
REMARK  180  A    between atoms: _470  and  _472
REMARK  181  A    between atoms: _472  and  _473
REMARK  182  A    between atoms: _472  and  _475
REMARK  183  A    between atoms: _475  and  _476
REMARK  184  A    between atoms: _486  and  _488
REMARK  185  A    between atoms: _488  and  _489
REMARK  186  A    between atoms: _488  and  _491
REMARK  187  A    between atoms: _491  and  _492
REMARK  188  A    between atoms: _493  and  _495
REMARK  189  A    between atoms: _495  and  _496
REMARK  190  A    between atoms: _499  and  _501
REMARK  191  A    between atoms: _501  and  _502
REMARK  192  A    between atoms: _501  and  _504
REMARK  193  A    between atoms: _504  and  _505
REMARK  194  A    between atoms: _508  and  _510
REMARK  195  A    between atoms: _510  and  _511
REMARK  196  A    between atoms: _510  and  _513
REMARK  197  A    between atoms: _513  and  _514
REMARK  198  A    between atoms: _519  and  _520
REMARK  199  A    between atoms: _522  and  _524
REMARK  200  A    between atoms: _524  and  _525
REMARK  201  A    between atoms: _524  and  _527
REMARK  202  A    between atoms: _527  and  _528
REMARK  203  A    between atoms: _530  and  _532
REMARK  204  A    between atoms: _532  and  _533
REMARK  205  A    between atoms: _532  and  _535
REMARK  206  A    between atoms: _535  and  _536
REMARK  207  A    between atoms: _542  and  _544
REMARK  208  A    between atoms: _544  and  _545
REMARK  209  A    between atoms: _544  and  _547
REMARK  210  A    between atoms: _547  and  _548
REMARK  211  A    between atoms: _551  and  _553
REMARK  212  A    between atoms: _553  and  _554
REMARK  213  A    between atoms: _553  and  _556
REMARK  214  A    between atoms: _556  and  _557
REMARK  215  A    between atoms: _559  and  _561
REMARK  216  A    between atoms: _561  and  _562
REMARK  217  A    between atoms: _561  and  _564
REMARK  218  A    between atoms: _564  and  _565
REMARK  219  A    between atoms: _570  and  _572
REMARK  220  A    between atoms: _572  and  _573
REMARK  221  A    between atoms: _572  and  _575
REMARK  222  A    between atoms: _575  and  _576
REMARK  223  A    between atoms: _581  and  _583
REMARK  224  A    between atoms: _583  and  _584
REMARK  225  A    between atoms: _583  and  _586
REMARK  226  A    between atoms: _586  and  _587
REMARK  227  A    between atoms: _590  and  _592
REMARK  228  A    between atoms: _592  and  _593
REMARK  229  A    between atoms: _596  and  _598
REMARK  230  A    between atoms: _598  and  _599
REMARK  231  A    between atoms: _598  and  _601
REMARK  232  A    between atoms: _601  and  _602
REMARK  233  A    between atoms: _607  and  _608
REMARK  234  A    between atoms: _610  and  _612
REMARK  235  A    between atoms: _612  and  _613
REMARK  236  A    between atoms: _612  and  _615
REMARK  237  A    between atoms: _615  and  _616
REMARK  238  A    between atoms: _621  and  _622
REMARK  239  A    between atoms: _624  and  _626
REMARK  240  A    between atoms: _626  and  _627
REMARK  241  A    between atoms: _626  and  _629
REMARK  242  A    between atoms: _632  and  _634
REMARK  243  A    between atoms: _634  and  _635
REMARK  244  A    between atoms: _634  and  _637
REMARK  245  A    between atoms: _637  and  _638
REMARK  246  A    between atoms: _643  and  _645
REMARK  247  A    between atoms: _645  and  _646
REMARK  248  A    between atoms: _649  and  _651
REMARK  249  A    between atoms: _651  and  _652
REMARK  250  A    between atoms: _651  and  _654
REMARK  251  A    between atoms: _654  and  _655
REMARK  252  A    between atoms: _655  and  _656
REMARK  253  A    between atoms: _656  and  _657
REMARK  254  A    between atoms: _666  and  _668
REMARK  255  A    between atoms: _668  and  _669
REMARK  256  A    between atoms: _668  and  _671
REMARK  257  A    between atoms: _671  and  _672
REMARK  258  A    between atoms: _675  and  _677
REMARK  259  A    between atoms: _677  and  _678
REMARK  260  A    between atoms: _677  and  _680
REMARK  261  A    between atoms: _680  and  _681
REMARK  262  A    between atoms: _684  and  _686
REMARK  263  A    between atoms: _686  and  _687
REMARK  264  A    between atoms: _686  and  _689
REMARK  265  A    between atoms: _689  and  _690
REMARK                            x       y       z     vdW  Elec       q    Type
REMARK                         _______ _______ _______ _____ _____    ______ ____
ROOT
ATOM      1  CG  TYR A   1      15.837  15.965  13.710  0.00  0.00    -0.020 A 
ATOM      2  CD2 TYR A   1      14.712  15.542  14.415  0.00  0.00    -0.001 A 
ATOM      3  CE2 TYR A   1      13.942  14.490  13.933  0.00  0.00    +0.036 A 
ATOM      4  CZ  TYR A   1      14.288  13.867  12.747  0.00  0.00    +0.134 A 
ATOM      5  CE1 TYR A   1      15.409  14.269  12.051  0.00  0.00    +0.036 A 
ATOM      6  CD1 TYR A   1      16.150  15.337  12.527  0.00  0.00    -0.001 A 
ENDROOT
BRANCH   4   7
ATOM      7  OH  TYR A   1      13.497  12.838  12.301  0.00  0.00    -0.506 OA
ATOM      8  HH  TYR A   1      14.036  12.010  12.243  0.00  0.00    +0.292 HD
ENDBRANCH   4   7
BRANCH   1   9
ATOM      9  CB  TYR A   1      16.648  17.123  14.280  0.00  0.00    +0.051 C 
BRANCH   9  10
ATOM     10  CA  TYR A   1      17.288  16.824  15.640  0.00  0.00    +0.137 C 
BRANCH  10  11
ATOM     11  N   TYR A   1      17.514  18.047  16.393  0.00  0.00    -0.239 NA
ATOM     12  H   TYR A   1      17.240  18.963  15.984  0.00  0.00    +0.142 HD
ENDBRANCH  10  11
BRANCH  10  13
ATOM     13  C   TYR A   1      18.651  16.121  15.471  0.00  0.00    +0.224 C 
ATOM     14  O   TYR A   1      18.668  14.896  15.418  0.00  0.00    -0.287 OA
ENDBRANCH  10  13
ENDBRANCH   9  10
ENDBRANCH   1   9
TORSDOF 5
REMARK  Name = ../refined-set-2016/1b2h/1b2h_pocket.pdb
REMARK  265 active torsions:
REMARK  status: ('A' for Active; 'I' for Inactive)
REMARK    1  A    between atoms: _1  and  _3
REMARK    2  A    between atoms: _3  and  _4
REMARK    3  A    between atoms: _3  and  _6
REMARK    4  A    between atoms: _6  and  _7
REMARK    5  A    between atoms: _12  and  _14
REMARK    6  A    between atoms: _14  and  _15
REMARK    7  A    between atoms: _17  and  _19
REMARK    8  A    between atoms: _19  and  _20
REMARK    9  A    between atoms: _19  and  _22
REMARK   10  A    between atoms: _22  and  _23
REMARK   11  A    between atoms: _25  and  _27
REMARK   12  A    between atoms: _27  and  _28
REMARK   13  A    between atoms: _27  and  _30
REMARK   14  A    between atoms: _30  and  _31
REMARK   15  A    between atoms: _31  and  _32
REMARK   16  A    between atoms: _37  and  _39
REMARK   17  A    between atoms: _39  and  _40
REMARK   18  A    between atoms: _39  and  _42
REMARK   19  A    between atoms: _42  and  _43
REMARK   20  A    between atoms: _46  and  _48
REMARK   21  A    between atoms: _48  and  _49
REMARK   22  A    between atoms: _48  and  _51
REMARK   23  A    between atoms: _52  and  _53
REMARK   24  A    between atoms: _56  and  _58
REMARK   25  A    between atoms: _58  and  _59
REMARK   26  A    between atoms: _61  and  _63
REMARK   27  A    between atoms: _63  and  _64
REMARK   28  A    between atoms: _63  and  _66
REMARK   29  A    between atoms: _70  and  _71
REMARK   30  A    between atoms: _76  and  _78
REMARK   31  A    between atoms: _78  and  _79
REMARK   32  A    between atoms: _78  and  _81
REMARK   33  A    between atoms: _81  and  _82
REMARK   34  A    between atoms: _82  and  _83
REMARK   35  A    between atoms: _86  and  _88
REMARK   36  A    between atoms: _88  and  _89
REMARK   37  A    between atoms: _88  and  _91
REMARK   38  A    between atoms: _91  and  _92
REMARK   39  A    between atoms: _94  and  _96
REMARK   40  A    between atoms: _96  and  _97
REMARK   41  A    between atoms: _96  and  _99
REMARK   42  A    between atoms: _99  and  _100
REMARK   43  A    between atoms: _105  and  _107
REMARK   44  A    between atoms: _107  and  _108
REMARK   45  A    between atoms: _107  and  _110
REMARK   46  A    between atoms: _110  and  _111
REMARK   47  A    between atoms: _111  and  _112
REMARK   48  A    between atoms: _112  and  _113
REMARK   49  A    between atoms: _123  and  _124
REMARK   50  A    between atoms: _129  and  _131
REMARK   51  A    between atoms: _131  and  _132
REMARK   52  A    between atoms: _131  and  _134
REMARK   53  A    between atoms: _134  and  _135
REMARK   54  A    between atoms: _140  and  _141
REMARK   55  A    between atoms: _143  and  _145
REMARK   56  A    between atoms: _145  and  _146
REMARK   57  A    between atoms: _145  and  _148
REMARK   58  A    between atoms: _148  and  _149
REMARK   59  A    between atoms: _154  and  _155
REMARK   60  A    between atoms: _157  and  _159
REMARK   61  A    between atoms: _159  and  _160
REMARK   62  A    between atoms: _159  and  _162
REMARK   63  A    between atoms: _165  and  _167
REMARK   64  A    between atoms: _167  and  _168
REMARK   65  A    between atoms: _167  and  _170
REMARK   66  A    between atoms: _170  and  _171
REMARK   67  A    between atoms: _177  and  _178
REMARK   68  A    between atoms: _183  and  _185
REMARK   69  A    between atoms: _185  and  _186
REMARK   70  A    between atoms: _185  and  _188
REMARK   71  A    between atoms: _188  and  _189
REMARK   72  A    between atoms: _191  and  _193
REMARK   73  A    between atoms: _193  and  _194
REMARK   74  A    between atoms: _193  and  _196
REMARK   75  A    between atoms: _196  and  _197
REMARK   76  A    between atoms: _197  and  _198
REMARK   77  A    between atoms: _201  and  _203
REMARK   78  A    between atoms: _203  and  _204
REMARK   79  A    between atoms: _203  and  _206
REMARK   80  A    between atoms: _206  and  _207
REMARK   81  A    between atoms: _212  and  _213
REMARK   82  A    between atoms: _215  and  _217
REMARK   83  A    between atoms: _217  and  _218
REMARK   84  A    between atoms: _217  and  _220
REMARK   85  A    between atoms: _220  and  _221
REMARK   86  A    between atoms: _226  and  _228
REMARK   87  A    between atoms: _228  and  _229
REMARK   88  A    between atoms: _228  and  _231
REMARK   89  A    between atoms: _231  and  _232
REMARK   90  A    between atoms: _237  and  _239
REMARK   91  A    between atoms: _239  and  _240
REMARK   92  A    between atoms: _239  and  _242
REMARK   93  A    between atoms: _242  and  _243
REMARK   94  A    between atoms: _243  and  _244
REMARK   95  A    between atoms: _246  and  _248
REMARK   96  A    between atoms: _248  and  _249
REMARK   97  A    between atoms: _248  and  _251
REMARK   98  A    between atoms: _251  and  _252
REMARK   99  A    between atoms: _257  and  _258
REMARK  100  A    between atoms: _260  and  _262
REMARK  101  A    between atoms: _262  and  _263
REMARK  102  A    between atoms: _262  and  _265
REMARK  103  A    between atoms: _265  and  _266
REMARK  104  A    between atoms: _269  and  _271
REMARK  105  A    between atoms: _271  and  _272
REMARK  106  A    between atoms: _271  and  _274
REMARK  107  A    between atoms: _274  and  _275
REMARK  108  A    between atoms: _275  and  _492
REMARK  109  A    between atoms: _276  and  _278
REMARK  110  A    between atoms: _278  and  _279
REMARK  111  A    between atoms: _278  and  _281
REMARK  112  A    between atoms: _281  and  _282
REMARK  113  A    between atoms: _285  and  _287
REMARK  114  A    between atoms: _287  and  _288
REMARK  115  A    between atoms: _287  and  _290
REMARK  116  A    between atoms: _290  and  _291
REMARK  117  A    between atoms: _296  and  _297
REMARK  118  A    between atoms: _299  and  _301
REMARK  119  A    between atoms: _301  and  _302
REMARK  120  A    between atoms: _301  and  _304
REMARK  121  A    between atoms: _304  and  _305
REMARK  122  A    between atoms: _310  and  _311
REMARK  123  A    between atoms: _313  and  _315
REMARK  124  A    between atoms: _315  and  _316
REMARK  125  A    between atoms: _315  and  _318
REMARK  126  A    between atoms: _318  and  _319
REMARK  127  A    between atoms: _319  and  _320
REMARK  128  A    between atoms: _323  and  _325
REMARK  129  A    between atoms: _325  and  _326
REMARK  130  A    between atoms: _325  and  _328
REMARK  131  A    between atoms: _328  and  _329
REMARK  132  A    between atoms: _334  and  _335
REMARK  133  A    between atoms: _337  and  _339
REMARK  134  A    between atoms: _339  and  _340
REMARK  135  A    between atoms: _339  and  _342
REMARK  136  A    between atoms: _342  and  _343
REMARK  137  A    between atoms: _348  and  _350
REMARK  138  A    between atoms: _350  and  _351
REMARK  139  A    between atoms: _350  and  _353
REMARK  140  A    between atoms: _353  and  _354
REMARK  141  A    between atoms: _357  and  _359
REMARK  142  A    between atoms: _359  and  _360
REMARK  143  A    between atoms: _359  and  _362
REMARK  144  A    between atoms: _362  and  _363
REMARK  145  A    between atoms: _368  and  _370
REMARK  146  A    between atoms: _370  and  _371
REMARK  147  A    between atoms: _370  and  _373
REMARK  148  A    between atoms: _373  and  _374
REMARK  149  A    between atoms: _384  and  _386
REMARK  150  A    between atoms: _386  and  _387
REMARK  151  A    between atoms: _386  and  _389
REMARK  152  A    between atoms: _389  and  _390
REMARK  153  A    between atoms: _396  and  _398
REMARK  154  A    between atoms: _398  and  _399
REMARK  155  A    between atoms: _398  and  _401
REMARK  156  A    between atoms: _401  and  _402
REMARK  157  A    between atoms: _405  and  _407
REMARK  158  A    between atoms: _407  and  _408
REMARK  159  A    between atoms: _407  and  _410
REMARK  160  A    between atoms: _410  and  _411
REMARK  161  A    between atoms: _414  and  _416
REMARK  162  A    between atoms: _416  and  _417
REMARK  163  A    between atoms: _416  and  _419
REMARK  164  A    between atoms: _419  and  _420
REMARK  165  A    between atoms: _420  and  _421
REMARK  166  A    between atoms: _421  and  _422
REMARK  167  A    between atoms: _431  and  _433
REMARK  168  A    between atoms: _433  and  _434
REMARK  169  A    between atoms: _433  and  _436
REMARK  170  A    between atoms: _436  and  _437
REMARK  171  A    between atoms: _442  and  _444
REMARK  172  A    between atoms: _444  and  _445
REMARK  173  A    between atoms: _444  and  _447
REMARK  174  A    between atoms: _447  and  _448
REMARK  175  A    between atoms: _449  and  _450
REMARK  176  A    between atoms: _459  and  _461
REMARK  177  A    between atoms: _461  and  _462
REMARK  178  A    between atoms: _465  and  _467
REMARK  179  A    between atoms: _467  and  _468
REMARK  180  A    between atoms: _470  and  _472
REMARK  181  A    between atoms: _472  and  _473
REMARK  182  A    between atoms: _472  and  _475
REMARK  183  A    between atoms: _475  and  _476
REMARK  184  A    between atoms: _486  and  _488
REMARK  185  A    between atoms: _488  and  _489
REMARK  186  A    between atoms: _488  and  _491
REMARK  187  A    between atoms: _491  and  _492
REMARK  188  A    between atoms: _493  and  _495
REMARK  189  A    between atoms: _495  and  _496
REMARK  190  A    between atoms: _499  and  _501
REMARK  191  A    between atoms: _501  and  _502
REMARK  192  A    between atoms: _501  and  _504
REMARK  193  A    between atoms: _504  and  _505
REMARK  194  A    between atoms: _508  and  _510
REMARK  195  A    between atoms: _510  and  _511
REMARK  196  A    between atoms: _510  and  _513
REMARK  197  A    between atoms: _513  and  _514
REMARK  198  A    between atoms: _519  and  _520
REMARK  199  A    between atoms: _522  and  _524
REMARK  200  A    between atoms: _524  and  _525
REMARK  201  A    between atoms: _524  and  _527
REMARK  202  A    between atoms: _527  and  _528
REMARK  203  A    between atoms: _530  and  _532
REMARK  204  A    between atoms: _532  and  _533
REMARK  205  A    between atoms: _532  and  _535
REMARK  206  A    between atoms: _535  and  _536
REMARK  207  A    between atoms: _542  and  _544
REMARK  208  A    between atoms: _544  and  _545
REMARK  209  A    between atoms: _544  and  _547
REMARK  210  A    between atoms: _547  and  _548
REMARK  211  A    between atoms: _551  and  _553
REMARK  212  A    between atoms: _553  and  _554
REMARK  213  A    between atoms: _553  and  _556
REMARK  214  A    between atoms: _556  and  _557
REMARK  215  A    between atoms: _559  and  _561
REMARK  216  A    between atoms: _561  and  _562
REMARK  217  A    between atoms: _561  and  _564
REMARK  218  A    between atoms: _564  and  _565
REMARK  219  A    between atoms: _570  and  _572
REMARK  220  A    between atoms: _572  and  _573
REMARK  221  A    between atoms: _572  and  _575
REMARK  222  A    between atoms: _575  and  _576
REMARK  223  A    between atoms: _581  and  _583
REMARK  224  A    between atoms: _583  and  _584
REMARK  225  A    between atoms: _583  and  _586
REMARK  226  A    between atoms: _586  and  _587
REMARK  227  A    between atoms: _590  and  _592
REMARK  228  A    between atoms: _592  and  _593
REMARK  229  A    between atoms: _596  and  _598
REMARK  230  A    between atoms: _598  and  _599
REMARK  231  A    between atoms: _598  and  _601
REMARK  232  A    between atoms: _601  and  _602
REMARK  233  A    between atoms: _607  and  _608
REMARK  234  A    between atoms: _610  and  _612
REMARK  235  A    between atoms: _612  and  _613
REMARK  236  A    between atoms: _612  and  _615
REMARK  237  A    between atoms: _615  and  _616
REMARK  238  A    between atoms: _621  and  _622
REMARK  239  A    between atoms: _624  and  _626
REMARK  240  A    between atoms: _626  and  _627
REMARK  241  A    between atoms: _626  and  _629
REMARK  242  A    between atoms: _632  and  _634
REMARK  243  A    between atoms: _634  and  _635
REMARK  244  A    between atoms: _634  and  _637
REMARK  245  A    between atoms: _637  and  _638
REMARK  246  A    between atoms: _643  and  _645
REMARK  247  A    between atoms: _645  and  _646
REMARK  248  A    between atoms: _649  and  _651
REMARK  249  A    between atoms: _651  and  _652
REMARK  250  A    between atoms: _651  and  _654
REMARK  251  A    between atoms: _654  and  _655
REMARK  252  A    between atoms: _655  and  _656
REMARK  253  A    between atoms: _656  and  _657
REMARK  254  A    between atoms: _666  and  _668
REMARK  255  A    between atoms: _668  and  _669
REMARK  256  A    between atoms: _668  and  _671
REMARK  257  A    between atoms: _671  and  _672
REMARK  258  A    between atoms: _675  and  _677
REMARK  259  A    between atoms: _677  and  _678
REMARK  260  A    between atoms: _677  and  _680
REMARK  261  A    between atoms: _680  and  _681
REMARK  262  A    between atoms: _684  and  _686
REMARK  263  A    between atoms: _686  and  _687
REMARK  264  A    between atoms: _686  and  _689
REMARK  265  A    between atoms: _689  and  _690
REMARK                            x       y       z     vdW  Elec       q    Type
REMARK                         _______ _______ _______ _____ _____    ______ ____
ROOT
ATOM      1  CA  HIS A   2      12.080  14.756   8.355  0.00  0.00    +0.155 C 
ENDROOT
BRANCH   1   2
ATOM      2  C   HIS A   2      12.563  15.965   7.622  0.00  0.00    +0.244 C 
ATOM      3  N   PRO A   3      11.799  17.056   7.533  0.00  0.00    -0.272 N 
ATOM      4  CD  PRO A   3      10.407  17.206   8.033  0.00  0.00    +0.094 C 
ATOM      5  CG  PRO A   3       9.870  18.346   7.177  0.00  0.00    +0.024 C 
ATOM      6  CB  PRO A   3      11.059  19.231   6.934  0.00  0.00    +0.031 C 
ATOM      7  CA  PRO A   3      12.203  18.233   6.777  0.00  0.00    +0.152 C 
ATOM      8  O   HIS A   2      13.707  15.973   7.123  0.00  0.00    -0.273 OA
BRANCH   7   9
ATOM      9  C   PRO A   3      13.488  18.868   7.283  0.00  0.00    +0.241 C 
ATOM     10  N   SER A   4      13.793  18.826   8.571  0.00  0.00    -0.296 N 
ATOM     11  H   SER A   4      13.160  18.339   9.237  0.00  0.00    +0.150 HD
ATOM     12  O   PRO A   3      14.238  19.354   6.428  0.00  0.00    -0.273 OA
BRANCH  10  13
ATOM     13  CA  SER A   4      15.022  19.465   9.064  0.00  0.00    +0.166 C 
BRANCH  13  14
ATOM     14  C   SER A   4      16.294  18.912   8.442  0.00  0.00    +0.229 C 
ATOM     15  O   SER A   4      17.265  19.665   8.304  0.00  0.00    -0.286 OA
ENDBRANCH  13  14
BRANCH  13  16
ATOM     16  CB  SER A   4      15.040  19.408  10.591  0.00  0.00    +0.165 C 
BRANCH  16  17
ATOM     17  OG  SER A   4      15.262  18.051  11.033  0.00  0.00    -0.380 OA
ATOM     18  H   SER A   4      14.535  17.471  10.694  0.00  0.00    +0.211 HD
ENDBRANCH  16  17
ENDBRANCH  13  16
ENDBRANCH  10  13
ENDBRANCH   7   9
ENDBRANCH   1   2
BRANCH   1  20
ATOM     19  C   VAL A   1      12.068  12.949   6.699  0.00  0.00    +0.238 C 
ATOM     20  N   HIS A   2      12.573  13.489   7.789  0.00  0.00    -0.297 N 
ATOM     21  H   HIS A   2      13.354  12.999   8.271  0.00  0.00    +0.150 HD
ATOM     22  O   VAL A   1      11.258  13.591   6.004  0.00  0.00    -0.274 OA
BRANCH  19  23
ATOM     23  CA  VAL A   1      12.532  11.569   6.230  0.00  0.00    +0.145 C 
BRANCH  23  24
ATOM     24  CB  VAL A   1      11.371  10.558   6.287  0.00  0.00    +0.025 C 
ATOM     25  CG2 VAL A   1      10.827  10.422   7.708  0.00  0.00    +0.002 C 
ATOM     26  CG1 VAL A   1      11.867   9.159   5.848  0.00  0.00    +0.002 C 
ENDBRANCH  23  24
BRANCH  23  27
ATOM     27  N   VAL A   1      13.619  11.095   7.073  0.00  0.00    -0.238 NA
ATOM     28  H   VAL A   1      13.395  10.531   7.917  0.00  0.00    +0.142 HD
ENDBRANCH  23  27
ENDBRANCH  19  23
ENDBRANCH   1  20
BRANCH   1  29
ATOM     29  CB  HIS A   2      12.540  14.742   9.846  0.00  0.00    +0.076 C 
BRANCH  29  30
ATOM     30  CG  HIS A   2      11.909  15.855  10.637  0.00  0.00    +0.082 A 
ATOM     31  CD2 HIS A   2      10.695  15.944  11.228  0.00  0.00    +0.115 A 
ATOM     32  NE2 HIS A   2      10.612  17.183  11.819  0.00  0.00    -0.221 NA
ATOM     33  CE1 HIS A   2      11.757  17.834  11.592  0.00  0.00    +0.199 A 
ATOM     34  ND1 HIS A   2      12.581  17.050  10.897  0.00  0.00    -0.227 NA
ENDBRANCH  29  30
ENDBRANCH   1  29
TORSDOF 12
REMARK  Name = ../refined-set-2016/1b2h/1b2h_pocket.pdb
REMARK  265 active torsions:
REMARK  status: ('A' for Active; 'I' for Inactive)
REMARK    1  A    between atoms: _1  and  _3
REMARK    2  A    between atoms: _3  and  _4
REMARK    3  A    between atoms: _3  and  _6
REMARK    4  A    between atoms: _6  and  _7
REMARK    5  A    between atoms: _12  and  _14
REMARK    6  A    between atoms: _14  and  _15
REMARK    7  A    between atoms: _17  and  _19
REMARK    8  A    between atoms: _19  and  _20
REMARK    9  A    between atoms: _19  and  _22
REMARK   10  A    between atoms: _22  and  _23
REMARK   11  A    between atoms: _25  and  _27
REMARK   12  A    between atoms: _27  and  _28
REMARK   13  A    between atoms: _27  and  _30
REMARK   14  A    between atoms: _30  and  _31
REMARK   15  A    between atoms: _31  and  _32
REMARK   16  A    between atoms: _37  and  _39
REMARK   17  A    between atoms: _39  and  _40
REMARK   18  A    between atoms: _39  and  _42
REMARK   19  A    between atoms: _42  and  _43
REMARK   20  A    between atoms: _46  and  _48
REMARK   21  A    between atoms: _48  and  _49
REMARK   22  A    between atoms: _48  and  _51
REMARK   23  A    between atoms: _52  and  _53
REMARK   24  A    between atoms: _56  and  _58
REMARK   25  A    between atoms: _58  and  _59
REMARK   26  A    between atoms: _61  and  _63
REMARK   27  A    between atoms: _63  and  _64
REMARK   28  A    between atoms: _63  and  _66
REMARK   29  A    between atoms: _70  and  _71
REMARK   30  A    between atoms: _76  and  _78
REMARK   31  A    between atoms: _78  and  _79
REMARK   32  A    between atoms: _78  and  _81
REMARK   33  A    between atoms: _81  and  _82
REMARK   34  A    between atoms: _82  and  _83
REMARK   35  A    between atoms: _86  and  _88
REMARK   36  A    between atoms: _88  and  _89
REMARK   37  A    between atoms: _88  and  _91
REMARK   38  A    between atoms: _91  and  _92
REMARK   39  A    between atoms: _94  and  _96
REMARK   40  A    between atoms: _96  and  _97
REMARK   41  A    between atoms: _96  and  _99
REMARK   42  A    between atoms: _99  and  _100
REMARK   43  A    between atoms: _105  and  _107
REMARK   44  A    between atoms: _107  and  _108
REMARK   45  A    between atoms: _107  and  _110
REMARK   46  A    between atoms: _110  and  _111
REMARK   47  A    between atoms: _111  and  _112
REMARK   48  A    between atoms: _112  and  _113
REMARK   49  A    between atoms: _123  and  _124
REMARK   50  A    between atoms: _129  and  _131
REMARK   51  A    between atoms: _131  and  _132
REMARK   52  A    between atoms: _131  and  _134
REMARK   53  A    between atoms: _134  and  _135
REMARK   54  A    between atoms: _140  and  _141
REMARK   55  A    between atoms: _143  and  _145
REMARK   56  A    between atoms: _145  and  _146
REMARK   57  A    between atoms: _145  and  _148
REMARK   58  A    between atoms: _148  and  _149
REMARK   59  A    between atoms: _154  and  _155
REMARK   60  A    between atoms: _157  and  _159
REMARK   61  A    between atoms: _159  and  _160
REMARK   62  A    between atoms: _159  and  _162
REMARK   63  A    between atoms: _165  and  _167
REMARK   64  A    between atoms: _167  and  _168
REMARK   65  A    between atoms: _167  and  _170
REMARK   66  A    between atoms: _170  and  _171
REMARK   67  A    between atoms: _177  and  _178
REMARK   68  A    between atoms: _183  and  _185
REMARK   69  A    between atoms: _185  and  _186
REMARK   70  A    between atoms: _185  and  _188
REMARK   71  A    between atoms: _188  and  _189
REMARK   72  A    between atoms: _191  and  _193
REMARK   73  A    between atoms: _193  and  _194
REMARK   74  A    between atoms: _193  and  _196
REMARK   75  A    between atoms: _196  and  _197
REMARK   76  A    between atoms: _197  and  _198
REMARK   77  A    between atoms: _201  and  _203
REMARK   78  A    between atoms: _203  and  _204
REMARK   79  A    between atoms: _203  and  _206
REMARK   80  A    between atoms: _206  and  _207
REMARK   81  A    between atoms: _212  and  _213
REMARK   82  A    between atoms: _215  and  _217
REMARK   83  A    between atoms: _217  and  _218
REMARK   84  A    between atoms: _217  and  _220
REMARK   85  A    between atoms: _220  and  _221
REMARK   86  A    between atoms: _226  and  _228
REMARK   87  A    between atoms: _228  and  _229
REMARK   88  A    between atoms: _228  and  _231
REMARK   89  A    between atoms: _231  and  _232
REMARK   90  A    between atoms: _237  and  _239
REMARK   91  A    between atoms: _239  and  _240
REMARK   92  A    between atoms: _239  and  _242
REMARK   93  A    between atoms: _242  and  _243
REMARK   94  A    between atoms: _243  and  _244
REMARK   95  A    between atoms: _246  and  _248
REMARK   96  A    between atoms: _248  and  _249
REMARK   97  A    between atoms: _248  and  _251
REMARK   98  A    between atoms: _251  and  _252
REMARK   99  A    between atoms: _257  and  _258
REMARK  100  A    between atoms: _260  and  _262
REMARK  101  A    between atoms: _262  and  _263
REMARK  102  A    between atoms: _262  and  _265
REMARK  103  A    between atoms: _265  and  _266
REMARK  104  A    between atoms: _269  and  _271
REMARK  105  A    between atoms: _271  and  _272
REMARK  106  A    between atoms: _271  and  _274
REMARK  107  A    between atoms: _274  and  _275
REMARK  108  A    between atoms: _275  and  _492
REMARK  109  A    between atoms: _276  and  _278
REMARK  110  A    between atoms: _278  and  _279
REMARK  111  A    between atoms: _278  and  _281
REMARK  112  A    between atoms: _281  and  _282
REMARK  113  A    between atoms: _285  and  _287
REMARK  114  A    between atoms: _287  and  _288
REMARK  115  A    between atoms: _287  and  _290
REMARK  116  A    between atoms: _290  and  _291
REMARK  117  A    between atoms: _296  and  _297
REMARK  118  A    between atoms: _299  and  _301
REMARK  119  A    between atoms: _301  and  _302
REMARK  120  A    between atoms: _301  and  _304
REMARK  121  A    between atoms: _304  and  _305
REMARK  122  A    between atoms: _310  and  _311
REMARK  123  A    between atoms: _313  and  _315
REMARK  124  A    between atoms: _315  and  _316
REMARK  125  A    between atoms: _315  and  _318
REMARK  126  A    between atoms: _318  and  _319
REMARK  127  A    between atoms: _319  and  _320
REMARK  128  A    between atoms: _323  and  _325
REMARK  129  A    between atoms: _325  and  _326
REMARK  130  A    between atoms: _325  and  _328
REMARK  131  A    between atoms: _328  and  _329
REMARK  132  A    between atoms: _334  and  _335
REMARK  133  A    between atoms: _337  and  _339
REMARK  134  A    between atoms: _339  and  _340
REMARK  135  A    between atoms: _339  and  _342
REMARK  136  A    between atoms: _342  and  _343
REMARK  137  A    between atoms: _348  and  _350
REMARK  138  A    between atoms: _350  and  _351
REMARK  139  A    between atoms: _350  and  _353
REMARK  140  A    between atoms: _353  and  _354
REMARK  141  A    between atoms: _357  and  _359
REMARK  142  A    between atoms: _359  and  _360
REMARK  143  A    between atoms: _359  and  _362
REMARK  144  A    between atoms: _362  and  _363
REMARK  145  A    between atoms: _368  and  _370
REMARK  146  A    between atoms: _370  and  _371
REMARK  147  A    between atoms: _370  and  _373
REMARK  148  A    between atoms: _373  and  _374
REMARK  149  A    between atoms: _384  and  _386
REMARK  150  A    between atoms: _386  and  _387
REMARK  151  A    between atoms: _386  and  _389
REMARK  152  A    between atoms: _389  and  _390
REMARK  153  A    between atoms: _396  and  _398
REMARK  154  A    between atoms: _398  and  _399
REMARK  155  A    between atoms: _398  and  _401
REMARK  156  A    between atoms: _401  and  _402
REMARK  157  A    between atoms: _405  and  _407
REMARK  158  A    between atoms: _407  and  _408
REMARK  159  A    between atoms: _407  and  _410
REMARK  160  A    between atoms: _410  and  _411
REMARK  161  A    between atoms: _414  and  _416
REMARK  162  A    between atoms: _416  and  _417
REMARK  163  A    between atoms: _416  and  _419
REMARK  164  A    between atoms: _419  and  _420
REMARK  165  A    between atoms: _420  and  _421
REMARK  166  A    between atoms: _421  and  _422
REMARK  167  A    between atoms: _431  and  _433
REMARK  168  A    between atoms: _433  and  _434
REMARK  169  A    between atoms: _433  and  _436
REMARK  170  A    between atoms: _436  and  _437
REMARK  171  A    between atoms: _442  and  _444
REMARK  172  A    between atoms: _444  and  _445
REMARK  173  A    between atoms: _444  and  _447
REMARK  174  A    between atoms: _447  and  _448
REMARK  175  A    between atoms: _449  and  _450
REMARK  176  A    between atoms: _459  and  _461
REMARK  177  A    between atoms: _461  and  _462
REMARK  178  A    between atoms: _465  and  _467
REMARK  179  A    between atoms: _467  and  _468
REMARK  180  A    between atoms: _470  and  _472
REMARK  181  A    between atoms: _472  and  _473
REMARK  182  A    between atoms: _472  and  _475
REMARK  183  A    between atoms: _475  and  _476
REMARK  184  A    between atoms: _486  and  _488
REMARK  185  A    between atoms: _488  and  _489
REMARK  186  A    between atoms: _488  and  _491
REMARK  187  A    between atoms: _491  and  _492
REMARK  188  A    between atoms: _493  and  _495
REMARK  189  A    between atoms: _495  and  _496
REMARK  190  A    between atoms: _499  and  _501
REMARK  191  A    between atoms: _501  and  _502
REMARK  192  A    between atoms: _501  and  _504
REMARK  193  A    between atoms: _504  and  _505
REMARK  194  A    between atoms: _508  and  _510
REMARK  195  A    between atoms: _510  and  _511
REMARK  196  A    between atoms: _510  and  _513
REMARK  197  A    between atoms: _513  and  _514
REMARK  198  A    between atoms: _519  and  _520
REMARK  199  A    between atoms: _522  and  _524
REMARK  200  A    between atoms: _524  and  _525
REMARK  201  A    between atoms: _524  and  _527
REMARK  202  A    between atoms: _527  and  _528
REMARK  203  A    between atoms: _530  and  _532
REMARK  204  A    between atoms: _532  and  _533
REMARK  205  A    between atoms: _532  and  _535
REMARK  206  A    between atoms: _535  and  _536
REMARK  207  A    between atoms: _542  and  _544
REMARK  208  A    between atoms: _544  and  _545
REMARK  209  A    between atoms: _544  and  _547
REMARK  210  A    between atoms: _547  and  _548
REMARK  211  A    between atoms: _551  and  _553
REMARK  212  A    between atoms: _553  and  _554
REMARK  213  A    between atoms: _553  and  _556
REMARK  214  A    between atoms: _556  and  _557
REMARK  215  A    between atoms: _559  and  _561
REMARK  216  A    between atoms: _561  and  _562
REMARK  217  A    between atoms: _561  and  _564
REMARK  218  A    between atoms: _564  and  _565
REMARK  219  A    between atoms: _570  and  _572
REMARK  220  A    between atoms: _572  and  _573
REMARK  221  A    between atoms: _572  and  _575
REMARK  222  A    between atoms: _575  and  _576
REMARK  223  A    between atoms: _581  and  _583
REMARK  224  A    between atoms: _583  and  _584
REMARK  225  A    between atoms: _583  and  _586
REMARK  226  A    between atoms: _586  and  _587
REMARK  227  A    between atoms: _590  and  _592
REMARK  228  A    between atoms: _592  and  _593
REMARK  229  A    between atoms: _596  and  _598
REMARK  230  A    between atoms: _598  and  _599
REMARK  231  A    between atoms: _598  and  _601
REMARK  232  A    between atoms: _601  and  _602
REMARK  233  A    between atoms: _607  and  _608
REMARK  234  A    between atoms: _610  and  _612
REMARK  235  A    between atoms: _612  and  _613
REMARK  236  A    between atoms: _612  and  _615
REMARK  237  A    between atoms: _615  and  _616
REMARK  238  A    between atoms: _621  and  _622
REMARK  239  A    between atoms: _624  and  _626
REMARK  240  A    between atoms: _626  and  _627
REMARK  241  A    between atoms: _626  and  _629
REMARK  242  A    between atoms: _632  and  _634
REMARK  243  A    between atoms: _634  and  _635
REMARK  244  A    between atoms: _634  and  _637
REMARK  245  A    between atoms: _637  and  _638
REMARK  246  A    between atoms: _643  and  _645
REMARK  247  A    between atoms: _645  and  _646
REMARK  248  A    between atoms: _649  and  _651
REMARK  249  A    between atoms: _651  and  _652
REMARK  250  A    between atoms: _651  and  _654
REMARK  251  A    between atoms: _654  and  _655
REMARK  252  A    between atoms: _655  and  _656
REMARK  253  A    between atoms: _656  and  _657
REMARK  254  A    between atoms: _666  and  _668
REMARK  255  A    between atoms: _668  and  _669
REMARK  256  A    between atoms: _668  and  _671
REMARK  257  A    between atoms: _671  and  _672
REMARK  258  A    between atoms: _675  and  _677
REMARK  259  A    between atoms: _677  and  _678
REMARK  260  A    between atoms: _677  and  _680
REMARK  261  A    between atoms: _680  and  _681
REMARK  262  A    between atoms: _684  and  _686
REMARK  263  A    between atoms: _686  and  _687
REMARK  264  A    between atoms: _686  and  _689
REMARK  265  A    between atoms: _689  and  _690
REMARK                            x       y       z     vdW  Elec       q    Type
REMARK                         _______ _______ _______ _____ _____    ______ ____
ROOT
ATOM      1  CA  GLU A   1     -12.454  23.708  10.441  0.00  0.00    +0.134 C 
ENDROOT
BRANCH   1   2
ATOM      2  N   GLU A   1     -12.145  25.064  10.917  0.00  0.00    -0.239 NA
ATOM      3  H   GLU A   1     -12.046  25.235  11.938  0.00  0.00    +0.142 HD
ENDBRANCH   1   2
BRANCH   1   4
ATOM      4  C   GLU A   1     -13.835  23.680   9.775  0.00  0.00    +0.224 C 
ATOM      5  O   GLU A   1     -14.074  22.902   8.843  0.00  0.00    -0.287 OA
ENDBRANCH   1   4
BRANCH   1   6
ATOM      6  CB  GLU A   1     -12.360  22.737  11.631  0.00  0.00    +0.037 C 
BRANCH   6   7
ATOM      7  CG  GLU A   1     -10.931  22.659  12.226  0.00  0.00    +0.116 C 
BRANCH   7   8
ATOM      8  CD  GLU A   1     -10.616  23.665  13.297  0.00  0.00    +0.365 C 
ATOM      9  OE2 GLU A   1      -9.500  23.663  13.896  0.00  0.00    -0.246 OA
ATOM     10  OE1 GLU A   1     -11.489  24.523  13.586  0.00  0.00    -0.246 OA
ENDBRANCH   7   8
ENDBRANCH   6   7
ENDBRANCH   1   6
TORSDOF 5
REMARK  Name = ../refined-set-2016/1b2h/1b2h_pocket.pdb
REMARK  265 active torsions:
REMARK  status: ('A' for Active; 'I' for Inactive)
REMARK    1  A    between atoms: _1  and  _3
REMARK    2  A    between atoms: _3  and  _4
REMARK    3  A    between atoms: _3  and  _6
REMARK    4  A    between atoms: _6  and  _7
REMARK    5  A    between atoms: _12  and  _14
REMARK    6  A    between atoms: _14  and  _15
REMARK    7  A    between atoms: _17  and  _19
REMARK    8  A    between atoms: _19  and  _20
REMARK    9  A    between atoms: _19  and  _22
REMARK   10  A    between atoms: _22  and  _23
REMARK   11  A    between atoms: _25  and  _27
REMARK   12  A    between atoms: _27  and  _28
REMARK   13  A    between atoms: _27  and  _30
REMARK   14  A    between atoms: _30  and  _31
REMARK   15  A    between atoms: _31  and  _32
REMARK   16  A    between atoms: _37  and  _39
REMARK   17  A    between atoms: _39  and  _40
REMARK   18  A    between atoms: _39  and  _42
REMARK   19  A    between atoms: _42  and  _43
REMARK   20  A    between atoms: _46  and  _48
REMARK   21  A    between atoms: _48  and  _49
REMARK   22  A    between atoms: _48  and  _51
REMARK   23  A    between atoms: _52  and  _53
REMARK   24  A    between atoms: _56  and  _58
REMARK   25  A    between atoms: _58  and  _59
REMARK   26  A    between atoms: _61  and  _63
REMARK   27  A    between atoms: _63  and  _64
REMARK   28  A    between atoms: _63  and  _66
REMARK   29  A    between atoms: _70  and  _71
REMARK   30  A    between atoms: _76  and  _78
REMARK   31  A    between atoms: _78  and  _79
REMARK   32  A    between atoms: _78  and  _81
REMARK   33  A    between atoms: _81  and  _82
REMARK   34  A    between atoms: _82  and  _83
REMARK   35  A    between atoms: _86  and  _88
REMARK   36  A    between atoms: _88  and  _89
REMARK   37  A    between atoms: _88  and  _91
REMARK   38  A    between atoms: _91  and  _92
REMARK   39  A    between atoms: _94  and  _96
REMARK   40  A    between atoms: _96  and  _97
REMARK   41  A    between atoms: _96  and  _99
REMARK   42  A    between atoms: _99  and  _100
REMARK   43  A    between atoms: _105  and  _107
REMARK   44  A    between atoms: _107  and  _108
REMARK   45  A    between atoms: _107  and  _110
REMARK   46  A    between atoms: _110  and  _111
REMARK   47  A    between atoms: _111  and  _112
REMARK   48  A    between atoms: _112  and  _113
REMARK   49  A    between atoms: _123  and  _124
REMARK   50  A    between atoms: _129  and  _131
REMARK   51  A    between atoms: _131  and  _132
REMARK   52  A    between atoms: _131  and  _134
REMARK   53  A    between atoms: _134  and  _135
REMARK   54  A    between atoms: _140  and  _141
REMARK   55  A    between atoms: _143  and  _145
REMARK   56  A    between atoms: _145  and  _146
REMARK   57  A    between atoms: _145  and  _148
REMARK   58  A    between atoms: _148  and  _149
REMARK   59  A    between atoms: _154  and  _155
REMARK   60  A    between atoms: _157  and  _159
REMARK   61  A    between atoms: _159  and  _160
REMARK   62  A    between atoms: _159  and  _162
REMARK   63  A    between atoms: _165  and  _167
REMARK   64  A    between atoms: _167  and  _168
REMARK   65  A    between atoms: _167  and  _170
REMARK   66  A    between atoms: _170  and  _171
REMARK   67  A    between atoms: _177  and  _178
REMARK   68  A    between atoms: _183  and  _185
REMARK   69  A    between atoms: _185  and  _186
REMARK   70  A    between atoms: _185  and  _188
REMARK   71  A    between atoms: _188  and  _189
REMARK   72  A    between atoms: _191  and  _193
REMARK   73  A    between atoms: _193  and  _194
REMARK   74  A    between atoms: _193  and  _196
REMARK   75  A    between atoms: _196  and  _197
REMARK   76  A    between atoms: _197  and  _198
REMARK   77  A    between atoms: _201  and  _203
REMARK   78  A    between atoms: _203  and  _204
REMARK   79  A    between atoms: _203  and  _206
REMARK   80  A    between atoms: _206  and  _207
REMARK   81  A    between atoms: _212  and  _213
REMARK   82  A    between atoms: _215  and  _217
REMARK   83  A    between atoms: _217  and  _218
REMARK   84  A    between atoms: _217  and  _220
REMARK   85  A    between atoms: _220  and  _221
REMARK   86  A    between atoms: _226  and  _228
REMARK   87  A    between atoms: _228  and  _229
REMARK   88  A    between atoms: _228  and  _231
REMARK   89  A    between atoms: _231  and  _232
REMARK   90  A    between atoms: _237  and  _239
REMARK   91  A    between atoms: _239  and  _240
REMARK   92  A    between atoms: _239  and  _242
REMARK   93  A    between atoms: _242  and  _243
REMARK   94  A    between atoms: _243  and  _244
REMARK   95  A    between atoms: _246  and  _248
REMARK   96  A    between atoms: _248  and  _249
REMARK   97  A    between atoms: _248  and  _251
REMARK   98  A    between atoms: _251  and  _252
REMARK   99  A    between atoms: _257  and  _258
REMARK  100  A    between atoms: _260  and  _262
REMARK  101  A    between atoms: _262  and  _263
REMARK  102  A    between atoms: _262  and  _265
REMARK  103  A    between atoms: _265  and  _266
REMARK  104  A    between atoms: _269  and  _271
REMARK  105  A    between atoms: _271  and  _272
REMARK  106  A    between atoms: _271  and  _274
REMARK  107  A    between atoms: _274  and  _275
REMARK  108  A    between atoms: _275  and  _492
REMARK  109  A    between atoms: _276  and  _278
REMARK  110  A    between atoms: _278  and  _279
REMARK  111  A    between atoms: _278  and  _281
REMARK  112  A    between atoms: _281  and  _282
REMARK  113  A    between atoms: _285  and  _287
REMARK  114  A    between atoms: _287  and  _288
REMARK  115  A    between atoms: _287  and  _290
REMARK  116  A    between atoms: _290  and  _291
REMARK  117  A    between atoms: _296  and  _297
REMARK  118  A    between atoms: _299  and  _301
REMARK  119  A    between atoms: _301  and  _302
REMARK  120  A    between atoms: _301  and  _304
REMARK  121  A    between atoms: _304  and  _305
REMARK  122  A    between atoms: _310  and  _311
REMARK  123  A    between atoms: _313  and  _315
REMARK  124  A    between atoms: _315  and  _316
REMARK  125  A    between atoms: _315  and  _318
REMARK  126  A    between atoms: _318  and  _319
REMARK  127  A    between atoms: _319  and  _320
REMARK  128  A    between atoms: _323  and  _325
REMARK  129  A    between atoms: _325  and  _326
REMARK  130  A    between atoms: _325  and  _328
REMARK  131  A    between atoms: _328  and  _329
REMARK  132  A    between atoms: _334  and  _335
REMARK  133  A    between atoms: _337  and  _339
REMARK  134  A    between atoms: _339  and  _340
REMARK  135  A    between atoms: _339  and  _342
REMARK  136  A    between atoms: _342  and  _343
REMARK  137  A    between atoms: _348  and  _350
REMARK  138  A    between atoms: _350  and  _351
REMARK  139  A    between atoms: _350  and  _353
REMARK  140  A    between atoms: _353  and  _354
REMARK  141  A    between atoms: _357  and  _359
REMARK  142  A    between atoms: _359  and  _360
REMARK  143  A    between atoms: _359  and  _362
REMARK  144  A    between atoms: _362  and  _363
REMARK  145  A    between atoms: _368  and  _370
REMARK  146  A    between atoms: _370  and  _371
REMARK  147  A    between atoms: _370  and  _373
REMARK  148  A    between atoms: _373  and  _374
REMARK  149  A    between atoms: _384  and  _386
REMARK  150  A    between atoms: _386  and  _387
REMARK  151  A    between atoms: _386  and  _389
REMARK  152  A    between atoms: _389  and  _390
REMARK  153  A    between atoms: _396  and  _398
REMARK  154  A    between atoms: _398  and  _399
REMARK  155  A    between atoms: _398  and  _401
REMARK  156  A    between atoms: _401  and  _402
REMARK  157  A    between atoms: _405  and  _407
REMARK  158  A    between atoms: _407  and  _408
REMARK  159  A    between atoms: _407  and  _410
REMARK  160  A    between atoms: _410  and  _411
REMARK  161  A    between atoms: _414  and  _416
REMARK  162  A    between atoms: _416  and  _417
REMARK  163  A    between atoms: _416  and  _419
REMARK  164  A    between atoms: _419  and  _420
REMARK  165  A    between atoms: _420  and  _421
REMARK  166  A    between atoms: _421  and  _422
REMARK  167  A    between atoms: _431  and  _433
REMARK  168  A    between atoms: _433  and  _434
REMARK  169  A    between atoms: _433  and  _436
REMARK  170  A    between atoms: _436  and  _437
REMARK  171  A    between atoms: _442  and  _444
REMARK  172  A    between atoms: _444  and  _445
REMARK  173  A    between atoms: _444  and  _447
REMARK  174  A    between atoms: _447  and  _448
REMARK  175  A    between atoms: _449  and  _450
REMARK  176  A    between atoms: _459  and  _461
REMARK  177  A    between atoms: _461  and  _462
REMARK  178  A    between atoms: _465  and  _467
REMARK  179  A    between atoms: _467  and  _468
REMARK  180  A    between atoms: _470  and  _472
REMARK  181  A    between atoms: _472  and  _473
REMARK  182  A    between atoms: _472  and  _475
REMARK  183  A    between atoms: _475  and  _476
REMARK  184  A    between atoms: _486  and  _488
REMARK  185  A    between atoms: _488  and  _489
REMARK  186  A    between atoms: _488  and  _491
REMARK  187  A    between atoms: _491  and  _492
REMARK  188  A    between atoms: _493  and  _495
REMARK  189  A    between atoms: _495  and  _496
REMARK  190  A    between atoms: _499  and  _501
REMARK  191  A    between atoms: _501  and  _502
REMARK  192  A    between atoms: _501  and  _504
REMARK  193  A    between atoms: _504  and  _505
REMARK  194  A    between atoms: _508  and  _510
REMARK  195  A    between atoms: _510  and  _511
REMARK  196  A    between atoms: _510  and  _513
REMARK  197  A    between atoms: _513  and  _514
REMARK  198  A    between atoms: _519  and  _520
REMARK  199  A    between atoms: _522  and  _524
REMARK  200  A    between atoms: _524  and  _525
REMARK  201  A    between atoms: _524  and  _527
REMARK  202  A    between atoms: _527  and  _528
REMARK  203  A    between atoms: _530  and  _532
REMARK  204  A    between atoms: _532  and  _533
REMARK  205  A    between atoms: _532  and  _535
REMARK  206  A    between atoms: _535  and  _536
REMARK  207  A    between atoms: _542  and  _544
REMARK  208  A    between atoms: _544  and  _545
REMARK  209  A    between atoms: _544  and  _547
REMARK  210  A    between atoms: _547  and  _548
REMARK  211  A    between atoms: _551  and  _553
REMARK  212  A    between atoms: _553  and  _554
REMARK  213  A    between atoms: _553  and  _556
REMARK  214  A    between atoms: _556  and  _557
REMARK  215  A    between atoms: _559  and  _561
REMARK  216  A    between atoms: _561  and  _562
REMARK  217  A    between atoms: _561  and  _564
REMARK  218  A    between atoms: _564  and  _565
REMARK  219  A    between atoms: _570  and  _572
REMARK  220  A    between atoms: _572  and  _573
REMARK  221  A    between atoms: _572  and  _575
REMARK  222  A    between atoms: _575  and  _576
REMARK  223  A    between atoms: _581  and  _583
REMARK  224  A    between atoms: _583  and  _584
REMARK  225  A    between atoms: _583  and  _586
REMARK  226  A    between atoms: _586  and  _587
REMARK  227  A    between atoms: _590  and  _592
REMARK  228  A    between atoms: _592  and  _593
REMARK  229  A    between atoms: _596  and  _598
REMARK  230  A    between atoms: _598  and  _599
REMARK  231  A    between atoms: _598  and  _601
REMARK  232  A    between atoms: _601  and  _602
REMARK  233  A    between atoms: _607  and  _608
REMARK  234  A    between atoms: _610  and  _612
REMARK  235  A    between atoms: _612  and  _613
REMARK  236  A    between atoms: _612  and  _615
REMARK  237  A    between atoms: _615  and  _616
REMARK  238  A    between atoms: _621  and  _622
REMARK  239  A    between atoms: _624  and  _626
REMARK  240  A    between atoms: _626  and  _627
REMARK  241  A    between atoms: _626  and  _629
REMARK  242  A    between atoms: _632  and  _634
REMARK  243  A    between atoms: _634  and  _635
REMARK  244  A    between atoms: _634  and  _637
REMARK  245  A    between atoms: _637  and  _638
REMARK  246  A    between atoms: _643  and  _645
REMARK  247  A    between atoms: _645  and  _646
REMARK  248  A    between atoms: _649  and  _651
REMARK  249  A    between atoms: _651  and  _652
REMARK  250  A    between atoms: _651  and  _654
REMARK  251  A    between atoms: _654  and  _655
REMARK  252  A    between atoms: _655  and  _656
REMARK  253  A    between atoms: _656  and  _657
REMARK  254  A    between atoms: _666  and  _668
REMARK  255  A    between atoms: _668  and  _669
REMARK  256  A    between atoms: _668  and  _671
REMARK  257  A    between atoms: _671  and  _672
REMARK  258  A    between atoms: _675  and  _677
REMARK  259  A    between atoms: _677  and  _678
REMARK  260  A    between atoms: _677  and  _680
REMARK  261  A    between atoms: _680  and  _681
REMARK  262  A    between atoms: _684  and  _686
REMARK  263  A    between atoms: _686  and  _687
REMARK  264  A    between atoms: _686  and  _689
REMARK  265  A    between atoms: _689  and  _690
REMARK                            x       y       z     vdW  Elec       q    Type
REMARK                         _______ _______ _______ _____ _____    ______ ____
ROOT
ATOM      1  CA  ASN A   2      -6.952  17.031   9.548  0.00  0.00    +0.158 C 
ENDROOT
BRANCH   1   3
ATOM      2  C   TYR A   1      -7.330  18.606   7.767  0.00  0.00    +0.239 C 
ATOM      3  N   ASN A   2      -6.485  18.061   8.642  0.00  0.00    -0.297 N 
ATOM      4  H   ASN A   2      -5.494  18.374   8.674  0.00  0.00    +0.150 HD
ATOM      5  O   TYR A   1      -8.542  18.310   7.718  0.00  0.00    -0.274 OA
BRANCH   2   6
ATOM      6  CA  TYR A   1      -6.799  19.651   6.778  0.00  0.00    +0.149 C 
BRANCH   6   7
ATOM      7  N   TYR A   1      -7.889  19.819   5.817  0.00  0.00    -0.238 NA
ATOM      8  H   TYR A   1      -8.482  20.673   5.848  0.00  0.00    +0.142 HD
ENDBRANCH   6   7
BRANCH   6   9
ATOM      9  CB  TYR A   1      -6.462  20.951   7.468  0.00  0.00    +0.053 C 
BRANCH   9  10
ATOM     10  CG  TYR A   1      -5.310  20.949   8.444  0.00  0.00    -0.020 A 
ATOM     11  CD2 TYR A   1      -5.506  21.287   9.780  0.00  0.00    -0.001 A 
ATOM     12  CE2 TYR A   1      -4.430  21.307  10.674  0.00  0.00    +0.036 A 
ATOM     13  CZ  TYR A   1      -3.168  20.988  10.214  0.00  0.00    +0.134 A 
ATOM     14  CE1 TYR A   1      -2.958  20.682   8.883  0.00  0.00    +0.036 A 
ATOM     15  CD1 TYR A   1      -4.020  20.654   8.005  0.00  0.00    -0.001 A 
BRANCH  13  16
ATOM     16  OH  TYR A   1      -2.116  21.009  11.117  0.00  0.00    -0.506 OA
ATOM     17  HH  TYR A   1      -1.278  20.761  10.651  0.00  0.00    +0.292 HD
ENDBRANCH  13  16
ENDBRANCH   9  10
ENDBRANCH   6   9
ENDBRANCH   2   6
ENDBRANCH   1   3
BRANCH   1  18
ATOM     18  C   ASN A   2      -7.316  17.500  10.938  0.00  0.00    +0.241 C 
ATOM     19  O   ASN A   2      -6.879  16.930  11.933  0.00  0.00    -0.273 OA
ATOM     20  N   ASN A   3      -8.039  18.590  11.070  0.00  0.00    -0.297 N 
ATOM     21  H   ASN A   3      -8.184  19.153  10.208  0.00  0.00    +0.150 HD
BRANCH  20  22
ATOM     22  CA  ASN A   3      -8.656  19.096  12.275  0.00  0.00    +0.158 C 
BRANCH  22  23
ATOM     23  C   ASN A   3     -10.156  19.066  11.894  0.00  0.00    +0.241 C 
ATOM     24  N   MET A   4     -11.020  18.301  12.531  0.00  0.00    -0.298 N 
ATOM     25  H   MET A   4     -10.706  17.712  13.329  0.00  0.00    +0.150 HD
ATOM     26  O   ASN A   3     -10.435  19.739  10.894  0.00  0.00    -0.273 OA
BRANCH  24  27
ATOM     27  CA  MET A   4     -12.429  18.283  12.110  0.00  0.00    +0.138 C 
BRANCH  27  28
ATOM     28  C   MET A   4     -13.310  19.060  13.095  0.00  0.00    +0.227 C 
ATOM     29  O   MET A   4     -13.088  19.018  14.307  0.00  0.00    -0.286 OA
ENDBRANCH  27  28
BRANCH  27  30
ATOM     30  CB  MET A   4     -12.925  16.857  12.001  0.00  0.00    +0.039 C 
BRANCH  30  31
ATOM     31  CG  MET A   4     -12.374  16.007  10.883  0.00  0.00    +0.060 C 
BRANCH  31  32
ATOM     32  SD  MET A   4     -13.144  16.439   9.301  0.00  0.00    -0.139 S 
ATOM     33  CE  MET A   4     -12.123  17.786   8.735  0.00  0.00    +0.069 C 
ENDBRANCH  31  32
ENDBRANCH  30  31
ENDBRANCH  27  30
ENDBRANCH  24  27
ENDBRANCH  22  23
BRANCH  22  34
ATOM     34  CB  ASN A   3      -8.284  20.519  12.688  0.00  0.00    +0.114 C 
BRANCH  34  35
ATOM     35  CG  ASN A   3      -6.935  20.563  13.420  0.00  0.00    +0.222 C 
ATOM     36  OD1 ASN A   3      -6.505  19.489  13.860  0.00  0.00    -0.275 OA
ATOM     37  ND2 ASN A   3      -6.339  21.751  13.502  0.00  0.00    -0.329 N 
ATOM     38 HD21 ASN A   3      -5.417  21.839  13.974  0.00  0.00    +0.145 HD
ATOM     39 HD22 ASN A   3      -6.796  22.591  13.094  0.00  0.00    +0.145 HD
ENDBRANCH  34  35
ENDBRANCH  22  34
ENDBRANCH  20  22
ENDBRANCH   1  18
BRANCH   1  40
ATOM     40  CB  ASN A   2      -6.006  15.827   9.548  0.00  0.00    +0.114 C 
BRANCH  40  41
ATOM     41  CG  ASN A   2      -4.576  16.172   9.901  0.00  0.00    +0.222 C 
ATOM     42  ND2 ASN A   2      -3.777  15.138  10.114  0.00  0.00    -0.329 N 
ATOM     43 HD21 ASN A   2      -2.786  15.294  10.389  0.00  0.00    +0.145 HD
ATOM     44 HD22 ASN A   2      -4.140  14.169  10.006  0.00  0.00    +0.145 HD
ATOM     45  OD1 ASN A   2      -4.223  17.354  10.008  0.00  0.00    -0.275 OA
ENDBRANCH  40  41
ENDBRANCH   1  40
TORSDOF 18
REMARK  Name = ../refined-set-2016/1b2h/1b2h_pocket.pdb
REMARK  265 active torsions:
REMARK  status: ('A' for Active; 'I' for Inactive)
REMARK    1  A    between atoms: _1  and  _3
REMARK    2  A    between atoms: _3  and  _4
REMARK    3  A    between atoms: _3  and  _6
REMARK    4  A    between atoms: _6  and  _7
REMARK    5  A    between atoms: _12  and  _14
REMARK    6  A    between atoms: _14  and  _15
REMARK    7  A    between atoms: _17  and  _19
REMARK    8  A    between atoms: _19  and  _20
REMARK    9  A    between atoms: _19  and  _22
REMARK   10  A    between atoms: _22  and  _23
REMARK   11  A    between atoms: _25  and  _27
REMARK   12  A    between atoms: _27  and  _28
REMARK   13  A    between atoms: _27  and  _30
REMARK   14  A    between atoms: _30  and  _31
REMARK   15  A    between atoms: _31  and  _32
REMARK   16  A    between atoms: _37  and  _39
REMARK   17  A    between atoms: _39  and  _40
REMARK   18  A    between atoms: _39  and  _42
REMARK   19  A    between atoms: _42  and  _43
REMARK   20  A    between atoms: _46  and  _48
REMARK   21  A    between atoms: _48  and  _49
REMARK   22  A    between atoms: _48  and  _51
REMARK   23  A    between atoms: _52  and  _53
REMARK   24  A    between atoms: _56  and  _58
REMARK   25  A    between atoms: _58  and  _59
REMARK   26  A    between atoms: _61  and  _63
REMARK   27  A    between atoms: _63  and  _64
REMARK   28  A    between atoms: _63  and  _66
REMARK   29  A    between atoms: _70  and  _71
REMARK   30  A    between atoms: _76  and  _78
REMARK   31  A    between atoms: _78  and  _79
REMARK   32  A    between atoms: _78  and  _81
REMARK   33  A    between atoms: _81  and  _82
REMARK   34  A    between atoms: _82  and  _83
REMARK   35  A    between atoms: _86  and  _88
REMARK   36  A    between atoms: _88  and  _89
REMARK   37  A    between atoms: _88  and  _91
REMARK   38  A    between atoms: _91  and  _92
REMARK   39  A    between atoms: _94  and  _96
REMARK   40  A    between atoms: _96  and  _97
REMARK   41  A    between atoms: _96  and  _99
REMARK   42  A    between atoms: _99  and  _100
REMARK   43  A    between atoms: _105  and  _107
REMARK   44  A    between atoms: _107  and  _108
REMARK   45  A    between atoms: _107  and  _110
REMARK   46  A    between atoms: _110  and  _111
REMARK   47  A    between atoms: _111  and  _112
REMARK   48  A    between atoms: _112  and  _113
REMARK   49  A    between atoms: _123  and  _124
REMARK   50  A    between atoms: _129  and  _131
REMARK   51  A    between atoms: _131  and  _132
REMARK   52  A    between atoms: _131  and  _134
REMARK   53  A    between atoms: _134  and  _135
REMARK   54  A    between atoms: _140  and  _141
REMARK   55  A    between atoms: _143  and  _145
REMARK   56  A    between atoms: _145  and  _146
REMARK   57  A    between atoms: _145  and  _148
REMARK   58  A    between atoms: _148  and  _149
REMARK   59  A    between atoms: _154  and  _155
REMARK   60  A    between atoms: _157  and  _159
REMARK   61  A    between atoms: _159  and  _160
REMARK   62  A    between atoms: _159  and  _162
REMARK   63  A    between atoms: _165  and  _167
REMARK   64  A    between atoms: _167  and  _168
REMARK   65  A    between atoms: _167  and  _170
REMARK   66  A    between atoms: _170  and  _171
REMARK   67  A    between atoms: _177  and  _178
REMARK   68  A    between atoms: _183  and  _185
REMARK   69  A    between atoms: _185  and  _186
REMARK   70  A    between atoms: _185  and  _188
REMARK   71  A    between atoms: _188  and  _189
REMARK   72  A    between atoms: _191  and  _193
REMARK   73  A    between atoms: _193  and  _194
REMARK   74  A    between atoms: _193  and  _196
REMARK   75  A    between atoms: _196  and  _197
REMARK   76  A    between atoms: _197  and  _198
REMARK   77  A    between atoms: _201  and  _203
REMARK   78  A    between atoms: _203  and  _204
REMARK   79  A    between atoms: _203  and  _206
REMARK   80  A    between atoms: _206  and  _207
REMARK   81  A    between atoms: _212  and  _213
REMARK   82  A    between atoms: _215  and  _217
REMARK   83  A    between atoms: _217  and  _218
REMARK   84  A    between atoms: _217  and  _220
REMARK   85  A    between atoms: _220  and  _221
REMARK   86  A    between atoms: _226  and  _228
REMARK   87  A    between atoms: _228  and  _229
REMARK   88  A    between atoms: _228  and  _231
REMARK   89  A    between atoms: _231  and  _232
REMARK   90  A    between atoms: _237  and  _239
REMARK   91  A    between atoms: _239  and  _240
REMARK   92  A    between atoms: _239  and  _242
REMARK   93  A    between atoms: _242  and  _243
REMARK   94  A    between atoms: _243  and  _244
REMARK   95  A    between atoms: _246  and  _248
REMARK   96  A    between atoms: _248  and  _249
REMARK   97  A    between atoms: _248  and  _251
REMARK   98  A    between atoms: _251  and  _252
REMARK   99  A    between atoms: _257  and  _258
REMARK  100  A    between atoms: _260  and  _262
REMARK  101  A    between atoms: _262  and  _263
REMARK  102  A    between atoms: _262  and  _265
REMARK  103  A    between atoms: _265  and  _266
REMARK  104  A    between atoms: _269  and  _271
REMARK  105  A    between atoms: _271  and  _272
REMARK  106  A    between atoms: _271  and  _274
REMARK  107  A    between atoms: _274  and  _275
REMARK  108  A    between atoms: _275  and  _492
REMARK  109  A    between atoms: _276  and  _278
REMARK  110  A    between atoms: _278  and  _279
REMARK  111  A    between atoms: _278  and  _281
REMARK  112  A    between atoms: _281  and  _282
REMARK  113  A    between atoms: _285  and  _287
REMARK  114  A    between atoms: _287  and  _288
REMARK  115  A    between atoms: _287  and  _290
REMARK  116  A    between atoms: _290  and  _291
REMARK  117  A    between atoms: _296  and  _297
REMARK  118  A    between atoms: _299  and  _301
REMARK  119  A    between atoms: _301  and  _302
REMARK  120  A    between atoms: _301  and  _304
REMARK  121  A    between atoms: _304  and  _305
REMARK  122  A    between atoms: _310  and  _311
REMARK  123  A    between atoms: _313  and  _315
REMARK  124  A    between atoms: _315  and  _316
REMARK  125  A    between atoms: _315  and  _318
REMARK  126  A    between atoms: _318  and  _319
REMARK  127  A    between atoms: _319  and  _320
REMARK  128  A    between atoms: _323  and  _325
REMARK  129  A    between atoms: _325  and  _326
REMARK  130  A    between atoms: _325  and  _328
REMARK  131  A    between atoms: _328  and  _329
REMARK  132  A    between atoms: _334  and  _335
REMARK  133  A    between atoms: _337  and  _339
REMARK  134  A    between atoms: _339  and  _340
REMARK  135  A    between atoms: _339  and  _342
REMARK  136  A    between atoms: _342  and  _343
REMARK  137  A    between atoms: _348  and  _350
REMARK  138  A    between atoms: _350  and  _351
REMARK  139  A    between atoms: _350  and  _353
REMARK  140  A    between atoms: _353  and  _354
REMARK  141  A    between atoms: _357  and  _359
REMARK  142  A    between atoms: _359  and  _360
REMARK  143  A    between atoms: _359  and  _362
REMARK  144  A    between atoms: _362  and  _363
REMARK  145  A    between atoms: _368  and  _370
REMARK  146  A    between atoms: _370  and  _371
REMARK  147  A    between atoms: _370  and  _373
REMARK  148  A    between atoms: _373  and  _374
REMARK  149  A    between atoms: _384  and  _386
REMARK  150  A    between atoms: _386  and  _387
REMARK  151  A    between atoms: _386  and  _389
REMARK  152  A    between atoms: _389  and  _390
REMARK  153  A    between atoms: _396  and  _398
REMARK  154  A    between atoms: _398  and  _399
REMARK  155  A    between atoms: _398  and  _401
REMARK  156  A    between atoms: _401  and  _402
REMARK  157  A    between atoms: _405  and  _407
REMARK  158  A    between atoms: _407  and  _408
REMARK  159  A    between atoms: _407  and  _410
REMARK  160  A    between atoms: _410  and  _411
REMARK  161  A    between atoms: _414  and  _416
REMARK  162  A    between atoms: _416  and  _417
REMARK  163  A    between atoms: _416  and  _419
REMARK  164  A    between atoms: _419  and  _420
REMARK  165  A    between atoms: _420  and  _421
REMARK  166  A    between atoms: _421  and  _422
REMARK  167  A    between atoms: _431  and  _433
REMARK  168  A    between atoms: _433  and  _434
REMARK  169  A    between atoms: _433  and  _436
REMARK  170  A    between atoms: _436  and  _437
REMARK  171  A    between atoms: _442  and  _444
REMARK  172  A    between atoms: _444  and  _445
REMARK  173  A    between atoms: _444  and  _447
REMARK  174  A    between atoms: _447  and  _448
REMARK  175  A    between atoms: _449  and  _450
REMARK  176  A    between atoms: _459  and  _461
REMARK  177  A    between atoms: _461  and  _462
REMARK  178  A    between atoms: _465  and  _467
REMARK  179  A    between atoms: _467  and  _468
REMARK  180  A    between atoms: _470  and  _472
REMARK  181  A    between atoms: _472  and  _473
REMARK  182  A    between atoms: _472  and  _475
REMARK  183  A    between atoms: _475  and  _476
REMARK  184  A    between atoms: _486  and  _488
REMARK  185  A    between atoms: _488  and  _489
REMARK  186  A    between atoms: _488  and  _491
REMARK  187  A    between atoms: _491  and  _492
REMARK  188  A    between atoms: _493  and  _495
REMARK  189  A    between atoms: _495  and  _496
REMARK  190  A    between atoms: _499  and  _501
REMARK  191  A    between atoms: _501  and  _502
REMARK  192  A    between atoms: _501  and  _504
REMARK  193  A    between atoms: _504  and  _505
REMARK  194  A    between atoms: _508  and  _510
REMARK  195  A    between atoms: _510  and  _511
REMARK  196  A    between atoms: _510  and  _513
REMARK  197  A    between atoms: _513  and  _514
REMARK  198  A    between atoms: _519  and  _520
REMARK  199  A    between atoms: _522  and  _524
REMARK  200  A    between atoms: _524  and  _525
REMARK  201  A    between atoms: _524  and  _527
REMARK  202  A    between atoms: _527  and  _528
REMARK  203  A    between atoms: _530  and  _532
REMARK  204  A    between atoms: _532  and  _533
REMARK  205  A    between atoms: _532  and  _535
REMARK  206  A    between atoms: _535  and  _536
REMARK  207  A    between atoms: _542  and  _544
REMARK  208  A    between atoms: _544  and  _545
REMARK  209  A    between atoms: _544  and  _547
REMARK  210  A    between atoms: _547  and  _548
REMARK  211  A    between atoms: _551  and  _553
REMARK  212  A    between atoms: _553  and  _554
REMARK  213  A    between atoms: _553  and  _556
REMARK  214  A    between atoms: _556  and  _557
REMARK  215  A    between atoms: _559  and  _561
REMARK  216  A    between atoms: _561  and  _562
REMARK  217  A    between atoms: _561  and  _564
REMARK  218  A    between atoms: _564  and  _565
REMARK  219  A    between atoms: _570  and  _572
REMARK  220  A    between atoms: _572  and  _573
REMARK  221  A    between atoms: _572  and  _575
REMARK  222  A    between atoms: _575  and  _576
REMARK  223  A    between atoms: _581  and  _583
REMARK  224  A    between atoms: _583  and  _584
REMARK  225  A    between atoms: _583  and  _586
REMARK  226  A    between atoms: _586  and  _587
REMARK  227  A    between atoms: _590  and  _592
REMARK  228  A    between atoms: _592  and  _593
REMARK  229  A    between atoms: _596  and  _598
REMARK  230  A    between atoms: _598  and  _599
REMARK  231  A    between atoms: _598  and  _601
REMARK  232  A    between atoms: _601  and  _602
REMARK  233  A    between atoms: _607  and  _608
REMARK  234  A    between atoms: _610  and  _612
REMARK  235  A    between atoms: _612  and  _613
REMARK  236  A    between atoms: _612  and  _615
REMARK  237  A    between atoms: _615  and  _616
REMARK  238  A    between atoms: _621  and  _622
REMARK  239  A    between atoms: _624  and  _626
REMARK  240  A    between atoms: _626  and  _627
REMARK  241  A    between atoms: _626  and  _629
REMARK  242  A    between atoms: _632  and  _634
REMARK  243  A    between atoms: _634  and  _635
REMARK  244  A    between atoms: _634  and  _637
REMARK  245  A    between atoms: _637  and  _638
REMARK  246  A    between atoms: _643  and  _645
REMARK  247  A    between atoms: _645  and  _646
REMARK  248  A    between atoms: _649  and  _651
REMARK  249  A    between atoms: _651  and  _652
REMARK  250  A    between atoms: _651  and  _654
REMARK  251  A    between atoms: _654  and  _655
REMARK  252  A    between atoms: _655  and  _656
REMARK  253  A    between atoms: _656  and  _657
REMARK  254  A    between atoms: _666  and  _668
REMARK  255  A    between atoms: _668  and  _669
REMARK  256  A    between atoms: _668  and  _671
REMARK  257  A    between atoms: _671  and  _672
REMARK  258  A    between atoms: _675  and  _677
REMARK  259  A    between atoms: _677  and  _678
REMARK  260  A    between atoms: _677  and  _680
REMARK  261  A    between atoms: _680  and  _681
REMARK  262  A    between atoms: _684  and  _686
REMARK  263  A    between atoms: _686  and  _687
REMARK  264  A    between atoms: _686  and  _689
REMARK  265  A    between atoms: _689  and  _690
REMARK                            x       y       z     vdW  Elec       q    Type
REMARK                         _______ _______ _______ _____ _____    ______ ____
ROOT
ATOM      1  CA  CYS A   5       3.245  14.222  16.253  0.00  0.00    +0.160 C 
ENDROOT
BRANCH   1   2
ATOM      2  N   CYS A   5       3.410  15.365  17.133  0.00  0.00    -0.296 N 
ATOM      3  C   TRP A   4       2.922  15.406  18.371  0.00  0.00    +0.241 C 
ATOM      4  O   TRP A   4       2.230  14.493  18.863  0.00  0.00    -0.273 OA
ATOM      5  H   CYS A   5       3.934  16.191  16.780  0.00  0.00    +0.150 HD
BRANCH   3   6
ATOM      6  CA  TRP A   4       3.228  16.649  19.211  0.00  0.00    +0.153 C 
BRANCH   6   7
ATOM      7  N   TRP A   4       1.904  17.065  19.742  0.00  0.00    -0.297 N 
ATOM      8  H   TRP A   4       1.341  16.413  20.325  0.00  0.00    +0.150 HD
ATOM      9  C   GLY A   3       1.453  18.270  19.464  0.00  0.00    +0.243 C 
ATOM     10  O   GLY A   3       2.101  19.190  18.920  0.00  0.00    -0.273 OA
BRANCH   9  11
ATOM     11  CA  GLY A   3       0.011  18.549  19.916  0.00  0.00    +0.176 C 
BRANCH  11  12
ATOM     12  N   GLY A   3       0.041  19.891  20.489  0.00  0.00    -0.295 N 
ATOM     13  C   ALA A   2      -0.622  20.152  21.612  0.00  0.00    +0.241 C 
ATOM     14  O   ALA A   2      -1.409  19.391  22.155  0.00  0.00    -0.273 OA
ATOM     15  H   GLY A   3       0.582  20.644  20.018  0.00  0.00    +0.150 HD
BRANCH  13  16
ATOM     16  CA  ALA A   2      -0.382  21.545  22.169  0.00  0.00    +0.149 C 
ATOM     17  CB  ALA A   2       0.878  21.541  23.041  0.00  0.00    +0.031 C 
BRANCH  16  18
ATOM     18  N   ALA A   2      -1.521  21.997  22.948  0.00  0.00    -0.297 N 
ATOM     19  H   ALA A   2      -2.251  21.326  23.263  0.00  0.00    +0.150 HD
ATOM     20  C   ARG A   1      -1.609  23.294  23.250  0.00  0.00    +0.239 C 
ATOM     21  O   ARG A   1      -0.760  24.092  22.843  0.00  0.00    -0.274 OA
BRANCH  20  22
ATOM     22  CA  ARG A   1      -2.810  23.743  24.094  0.00  0.00    +0.149 C 
BRANCH  22  23
ATOM     23  N   ARG A   1      -2.451  25.037  24.683  0.00  0.00    -0.238 NA
ATOM     24  H   ARG A   1      -2.943  25.911  24.409  0.00  0.00    +0.142 HD
ENDBRANCH  22  23
BRANCH  22  25
ATOM     25  CB  ARG A   1      -4.088  23.735  23.277  0.00  0.00    +0.055 C 
BRANCH  25  26
ATOM     26  CG  ARG A   1      -4.146  24.585  22.054  0.00  0.00    +0.012 C 
ATOM     27  CD  ARG A   1      -4.134  24.066  20.654  0.00  0.00    +0.143 C 
BRANCH  27  28
ATOM     28  NE  ARG A   1      -3.929  22.648  20.376  0.00  0.00    -0.243 N 
ATOM     29  HE  ARG A   1      -4.507  21.954  20.892  0.00  0.00    +0.265 HD
ATOM     30  CZ  ARG A   1      -3.034  22.197  19.490  0.00  0.00    +0.346 C 
ATOM     31  NH2 ARG A   1      -2.940  20.878  19.324  0.00  0.00    -0.292 N 
ATOM     32 HH21 ARG A   1      -3.550  20.240  19.874  0.00  0.00    +0.255 HD
ATOM     33 HH22 ARG A   1      -2.257  20.487  18.645  0.00  0.00    +0.255 HD
ATOM     34  NH1 ARG A   1      -2.287  23.044  18.778  0.00  0.00    -0.292 N 
ATOM     35 HH11 ARG A   1      -2.397  24.070  18.908  0.00  0.00    +0.255 HD
ATOM     36 HH12 ARG A   1      -1.595  22.678  18.093  0.00  0.00    +0.255 HD
ENDBRANCH  27  28
ENDBRANCH  25  26
ENDBRANCH  22  25
ENDBRANCH  20  22
ENDBRANCH  16  18
ENDBRANCH  13  16
ENDBRANCH  11  12
ENDBRANCH   9  11
ENDBRANCH   6   7
BRANCH   6  37
ATOM     37  CB  TRP A   4       4.297  16.313  20.252  0.00  0.00    +0.057 C 
BRANCH  37  38
ATOM     38  CG  TRP A   4       5.638  15.979  19.611  0.00  0.00    -0.002 A 
ATOM     39  CD1 TRP A   4       6.165  14.734  19.412  0.00  0.00    +0.068 A 
ATOM     40  NE1 TRP A   4       7.408  14.845  18.803  0.00  0.00    -0.352 N 
ATOM     41  CE2 TRP A   4       7.679  16.168  18.598  0.00  0.00    +0.056 A 
ATOM     42  CZ2 TRP A   4       8.800  16.751  17.997  0.00  0.00    +0.017 A 
ATOM     43  CH2 TRP A   4       8.805  18.127  17.904  0.00  0.00    +0.001 A 
ATOM     44  CZ3 TRP A   4       7.729  18.889  18.394  0.00  0.00    +0.000 A 
ATOM     45  CE3 TRP A   4       6.620  18.304  19.002  0.00  0.00    +0.001 A 
ATOM     46  HE1 TRP A   4       8.030  14.052  18.546  0.00  0.00    +0.166 HD
ATOM     47  CD2 TRP A   4       6.594  16.906  19.084  0.00  0.00    +0.013 A 
ENDBRANCH  37  38
ENDBRANCH   6  37
ENDBRANCH   3   6
ENDBRANCH   1   2
BRANCH   1  48
ATOM     48  C   CYS A   5       4.639  13.636  15.941  0.00  0.00    +0.242 C 
ATOM     49  N   ALA A   6       4.764  12.310  15.967  0.00  0.00    -0.297 N 
ATOM     50  H   ALA A   6       3.941  11.697  16.135  0.00  0.00    +0.150 HD
ATOM     51  O   CYS A   5       5.583  14.432  15.746  0.00  0.00    -0.273 OA
BRANCH  49  52
ATOM     52  CA  ALA A   6       6.096  11.744  15.751  0.00  0.00    +0.149 C 
ATOM     53  CB  ALA A   6       6.029  10.220  15.727  0.00  0.00    +0.031 C 
BRANCH  52  54
ATOM     54  C   ALA A   6       6.743  12.215  14.440  0.00  0.00    +0.241 C 
ATOM     55  N   ASP A   7       8.077  12.301  14.484  0.00  0.00    -0.297 N 
ATOM     56  H   ASP A   7       8.556  12.159  15.396  0.00  0.00    +0.150 HD
ATOM     57  O   ALA A   6       6.026  12.417  13.451  0.00  0.00    -0.273 OA
BRANCH  55  58
ATOM     58  CA  ASP A   7       8.883  12.585  13.310  0.00  0.00    +0.160 C 
BRANCH  58  59
ATOM     59  C   ASP A   7       9.448  11.266  12.759  0.00  0.00    +0.241 C 
ATOM     60  N   TYR A   8       9.570  10.288  13.637  0.00  0.00    -0.298 N 
ATOM     61  H   TYR A   8       9.349  10.488  14.634  0.00  0.00    +0.150 HD
ATOM     62  O   ASP A   7       9.809  11.146  11.582  0.00  0.00    -0.273 OA
BRANCH  60  63
ATOM     63  CA  TYR A   8      10.001   8.935  13.276  0.00  0.00    +0.141 C 
BRANCH  63  64
ATOM     64  C   TYR A   8       9.292   8.008  14.276  0.00  0.00    +0.227 C 
ATOM     65  O   TYR A   8       9.085   8.404  15.434  0.00  0.00    -0.286 OA
ENDBRANCH  63  64
BRANCH  63  66
ATOM     66  CB  TYR A   8      11.510   8.767  13.260  0.00  0.00    +0.054 C 
BRANCH  66  67
ATOM     67  CG  TYR A   8      12.250   9.170  14.510  0.00  0.00    -0.020 A 
ATOM     68  CD2 TYR A   8      12.614   8.200  15.455  0.00  0.00    -0.001 A 
ATOM     69  CE2 TYR A   8      13.290   8.567  16.619  0.00  0.00    +0.036 A 
ATOM     70  CZ  TYR A   8      13.635   9.886  16.822  0.00  0.00    +0.134 A 
ATOM     71  CE1 TYR A   8      13.298  10.856  15.897  0.00  0.00    +0.036 A 
ATOM     72  CD1 TYR A   8      12.594  10.482  14.750  0.00  0.00    -0.001 A 
BRANCH  70  73
ATOM     73  OH  TYR A   8      14.311  10.262  17.967  0.00  0.00    -0.506 OA
ATOM     74  HH  TYR A   8      14.480   9.463  18.526  0.00  0.00    +0.292 HD
ENDBRANCH  70  73
ENDBRANCH  66  67
ENDBRANCH  63  66
ENDBRANCH  60  63
ENDBRANCH  58  59
BRANCH  58  75
ATOM     75  CB  ASP A   7      10.074  13.507  13.663  0.00  0.00    +0.143 C 
BRANCH  75  76
ATOM     76  CG  ASP A   7       9.564  14.869  14.128  0.00  0.00    +0.367 C 
ATOM     77  OD2 ASP A   7      10.167  15.456  15.052  0.00  0.00    -0.246 OA
ATOM     78  OD1 ASP A   7       8.567  15.313  13.533  0.00  0.00    -0.246 OA
ENDBRANCH  75  76
ENDBRANCH  58  75
ENDBRANCH  55  58
ENDBRANCH  52  54
ENDBRANCH  49  52
ENDBRANCH   1  48
BRANCH   1  79
ATOM     79  CB  CYS A   5       2.638  14.658  14.924  0.00  0.00    +0.098 C 
BRANCH  79  80
ATOM     80  SG  CYS A   5       0.896  15.138  15.024  0.00  0.00    -0.080 S 
BRANCH  80  81
ATOM     81  SG  GLY A   3      -0.076  13.408  15.327  0.00  0.00    -0.080 S 
BRANCH  81  82
ATOM     82  CB  GLY A   3      -0.527  13.410  17.076  0.00  0.00    +0.098 C 
BRANCH  82  83
ATOM     83  CA  GLY A   3       0.219  12.399  17.964  0.00  0.00    +0.160 C 
BRANCH  83  84
ATOM     84  C   GLY A   3      -0.514  12.396  19.311  0.00  0.00    +0.242 C 
ATOM     85  N   TRP A   4      -0.080  13.276  20.191  0.00  0.00    -0.295 N 
ATOM     86  H   TRP A   4       0.728  13.885  19.949  0.00  0.00    +0.150 HD
ATOM     87  O   GLY A   3      -1.491  11.646  19.482  0.00  0.00    -0.273 OA
BRANCH  85  88
ATOM     88  CA  TRP A   4      -0.710  13.409  21.491  0.00  0.00    +0.176 C 
BRANCH  88  89
ATOM     89  C   TRP A   4      -1.179  14.850  21.667  0.00  0.00    +0.243 C 
ATOM     90  N   CYS A   5      -2.422  14.987  22.119  0.00  0.00    -0.297 N 
ATOM     91  H   CYS A   5      -3.016  14.144  22.252  0.00  0.00    +0.150 HD
ATOM     92  O   TRP A   4      -0.412  15.778  21.415  0.00  0.00    -0.273 OA
BRANCH  90  93
ATOM     93  CA  CYS A   5      -2.964  16.311  22.431  0.00  0.00    +0.153 C 
BRANCH  93  94
ATOM     94  C   CYS A   5      -2.781  16.534  23.922  0.00  0.00    +0.241 C 
ATOM     95  O   CYS A   5      -3.060  15.623  24.712  0.00  0.00    -0.273 OA
ATOM     96  N   ALA A   6      -2.217  17.654  24.330  0.00  0.00    -0.298 N 
ATOM     97  H   ALA A   6      -1.933  18.370  23.632  0.00  0.00    +0.150 HD
BRANCH  96  98
ATOM     98  CA  ALA A   6      -1.986  17.901  25.753  0.00  0.00    +0.141 C 
BRANCH  98  99
ATOM     99  C   ALA A   6      -2.015  19.387  26.042  0.00  0.00    +0.227 C 
ATOM    100  O   ALA A   6      -1.936  20.168  25.082  0.00  0.00    -0.286 OA
ENDBRANCH  98  99
BRANCH  98 101
ATOM    101  CB  ALA A   6      -0.597  17.376  26.149  0.00  0.00    +0.054 C 
BRANCH 101 102
ATOM    102  CG  ALA A   6       0.621  17.857  25.386  0.00  0.00    -0.020 A 
ATOM    103  CD2 ALA A   6       1.533  18.716  25.978  0.00  0.00    -0.001 A 
ATOM    104  CE2 ALA A   6       2.679  19.151  25.322  0.00  0.00    +0.036 A 
ATOM    105  CZ  ALA A   6       2.909  18.712  24.030  0.00  0.00    +0.134 A 
ATOM    106  CE1 ALA A   6       2.022  17.854  23.415  0.00  0.00    +0.036 A 
ATOM    107  CD1 ALA A   6       0.900  17.411  24.082  0.00  0.00    -0.001 A 
BRANCH 105 108
ATOM    108  OH  ALA A   6       4.053  19.127  23.383  0.00  0.00    -0.506 OA
ATOM    109  HH  ALA A   6       4.563  19.735  23.975  0.00  0.00    +0.292 HD
ENDBRANCH 105 108
ENDBRANCH 101 102
ENDBRANCH  98 101
ENDBRANCH  96  98
ENDBRANCH  93  94
BRANCH  93 110
ATOM    110  CB  CYS A   5      -4.464  16.327  22.101  0.00  0.00    +0.055 C 
BRANCH 110 111
ATOM    111  CG  CYS A   5      -5.067  17.709  21.946  0.00  0.00    -0.020 A 
ATOM    112  CD2 CYS A   5      -5.270  18.566  23.021  0.00  0.00    -0.001 A 
ATOM    113  CE2 CYS A   5      -5.862  19.811  22.833  0.00  0.00    +0.036 A 
ATOM    114  CZ  CYS A   5      -6.260  20.198  21.561  0.00  0.00    +0.134 A 
ATOM    115  CE1 CYS A   5      -6.070  19.367  20.481  0.00  0.00    +0.036 A 
ATOM    116  CD1 CYS A   5      -5.472  18.115  20.696  0.00  0.00    -0.001 A 
BRANCH 114 117
ATOM    117  OH  CYS A   5      -6.834  21.432  21.363  0.00  0.00    -0.506 OA
ATOM    118  HH  CYS A   5      -7.055  21.542  20.404  0.00  0.00    +0.292 HD
ENDBRANCH 114 117
ENDBRANCH 110 111
ENDBRANCH  93 110
ENDBRANCH  90  93
ENDBRANCH  88  89
BRANCH  88 119
ATOM    119  CB  TRP A   4       0.232  13.051  22.656  0.00  0.00    +0.137 C 
ATOM    120  CG2 TRP A   4      -0.490  13.209  24.011  0.00  0.00    +0.034 C 
BRANCH 119 121
ATOM    121  OG1 TRP A   4       0.582  11.674  22.500  0.00  0.00    -0.382 OA
ATOM    122  HG1 TRP A   4       1.190  11.404  23.233  0.00  0.00    +0.210 HD
ENDBRANCH 119 121
ENDBRANCH  88 119
ENDBRANCH  85  88
ENDBRANCH  83  84
BRANCH  83 124
ATOM    123  C   ALA A   2       1.258  10.481  16.876  0.00  0.00    +0.241 C 
ATOM    124  N   GLY A   3       0.164  11.056  17.414  0.00  0.00    -0.296 N 
ATOM    125  H   GLY A   3      -0.733  10.530  17.436  0.00  0.00    +0.150 HD
ATOM    126  O   ALA A   2       2.330  11.087  16.704  0.00  0.00    -0.273 OA
BRANCH 123 127
ATOM    127  CA  ALA A   2       1.045   9.071  16.370  0.00  0.00    +0.149 C 
BRANCH 127 130
ATOM    128  C   ARG A   1      -1.170   8.891  15.436  0.00  0.00    +0.239 C 
ATOM    129  O   ARG A   1      -1.673   8.812  16.573  0.00  0.00    -0.274 OA
ATOM    130  N   ALA A   2       0.134   9.071  15.224  0.00  0.00    -0.297 N 
ATOM    131  H   ALA A   2       0.498   9.209  14.260  0.00  0.00    +0.150 HD
BRANCH 128 132
ATOM    132  CA  ARG A   1      -2.091   8.803  14.222  0.00  0.00    +0.149 C 
BRANCH 132 133
ATOM    133  N   ARG A   1      -3.016   7.675  14.406  0.00  0.00    -0.238 NA
ATOM    134  H   ARG A   1      -3.335   7.416  15.362  0.00  0.00    +0.142 HD
ENDBRANCH 132 133
BRANCH 132 135
ATOM    135  CB  ARG A   1      -2.968  10.056  14.076  0.00  0.00    +0.053 C 
BRANCH 135 136
ATOM    136  CG  ARG A   1      -2.400  11.289  13.435  0.00  0.00    -0.020 A 
ATOM    137  CD2 ARG A   1      -3.132  12.476  13.575  0.00  0.00    -0.001 A 
ATOM    138  CE2 ARG A   1      -2.700  13.668  13.035  0.00  0.00    +0.036 A 
ATOM    139  CZ  ARG A   1      -1.531  13.685  12.321  0.00  0.00    +0.134 A 
ATOM    140  CE1 ARG A   1      -0.774  12.547  12.177  0.00  0.00    +0.036 A 
ATOM    141  CD1 ARG A   1      -1.199  11.334  12.723  0.00  0.00    -0.001 A 
BRANCH 139 142
ATOM    142  OH  ARG A   1      -1.113  14.897  11.801  0.00  0.00    -0.506 OA
ATOM    143  HH  ARG A   1      -0.262  14.769  11.312  0.00  0.00    +0.292 HD
ENDBRANCH 139 142
ENDBRANCH 135 136
ENDBRANCH 132 135
ENDBRANCH 128 132
ENDBRANCH 127 130
BRANCH 127 144
ATOM    144  CB  ALA A   2       2.378   8.382  15.996  0.00  0.00    +0.029 C 
BRANCH 144 145
ATOM    145  CG  ALA A   2       2.284   6.850  15.960  0.00  0.00    +0.002 C 
ATOM    146  CD2 ALA A   2       2.106   6.302  17.384  0.00  0.00    +0.000 C 
ATOM    147  CD1 ALA A   2       3.534   6.260  15.330  0.00  0.00    +0.000 C 
ENDBRANCH 144 145
ENDBRANCH 127 144
ENDBRANCH 123 127
ENDBRANCH  83 124
ENDBRANCH  82  83
ENDBRANCH  81  82
ENDBRANCH  80  81
ENDBRANCH  79  80
ENDBRANCH   1  79
TORSDOF 56
REMARK  Name = ../refined-set-2016/1b2h/1b2h_pocket.pdb
REMARK  265 active torsions:
REMARK  status: ('A' for Active; 'I' for Inactive)
REMARK    1  A    between atoms: _1  and  _3
REMARK    2  A    between atoms: _3  and  _4
REMARK    3  A    between atoms: _3  and  _6
REMARK    4  A    between atoms: _6  and  _7
REMARK    5  A    between atoms: _12  and  _14
REMARK    6  A    between atoms: _14  and  _15
REMARK    7  A    between atoms: _17  and  _19
REMARK    8  A    between atoms: _19  and  _20
REMARK    9  A    between atoms: _19  and  _22
REMARK   10  A    between atoms: _22  and  _23
REMARK   11  A    between atoms: _25  and  _27
REMARK   12  A    between atoms: _27  and  _28
REMARK   13  A    between atoms: _27  and  _30
REMARK   14  A    between atoms: _30  and  _31
REMARK   15  A    between atoms: _31  and  _32
REMARK   16  A    between atoms: _37  and  _39
REMARK   17  A    between atoms: _39  and  _40
REMARK   18  A    between atoms: _39  and  _42
REMARK   19  A    between atoms: _42  and  _43
REMARK   20  A    between atoms: _46  and  _48
REMARK   21  A    between atoms: _48  and  _49
REMARK   22  A    between atoms: _48  and  _51
REMARK   23  A    between atoms: _52  and  _53
REMARK   24  A    between atoms: _56  and  _58
REMARK   25  A    between atoms: _58  and  _59
REMARK   26  A    between atoms: _61  and  _63
REMARK   27  A    between atoms: _63  and  _64
REMARK   28  A    between atoms: _63  and  _66
REMARK   29  A    between atoms: _70  and  _71
REMARK   30  A    between atoms: _76  and  _78
REMARK   31  A    between atoms: _78  and  _79
REMARK   32  A    between atoms: _78  and  _81
REMARK   33  A    between atoms: _81  and  _82
REMARK   34  A    between atoms: _82  and  _83
REMARK   35  A    between atoms: _86  and  _88
REMARK   36  A    between atoms: _88  and  _89
REMARK   37  A    between atoms: _88  and  _91
REMARK   38  A    between atoms: _91  and  _92
REMARK   39  A    between atoms: _94  and  _96
REMARK   40  A    between atoms: _96  and  _97
REMARK   41  A    between atoms: _96  and  _99
REMARK   42  A    between atoms: _99  and  _100
REMARK   43  A    between atoms: _105  and  _107
REMARK   44  A    between atoms: _107  and  _108
REMARK   45  A    between atoms: _107  and  _110
REMARK   46  A    between atoms: _110  and  _111
REMARK   47  A    between atoms: _111  and  _112
REMARK   48  A    between atoms: _112  and  _113
REMARK   49  A    between atoms: _123  and  _124
REMARK   50  A    between atoms: _129  and  _131
REMARK   51  A    between atoms: _131  and  _132
REMARK   52  A    between atoms: _131  and  _134
REMARK   53  A    between atoms: _134  and  _135
REMARK   54  A    between atoms: _140  and  _141
REMARK   55  A    between atoms: _143  and  _145
REMARK   56  A    between atoms: _145  and  _146
REMARK   57  A    between atoms: _145  and  _148
REMARK   58  A    between atoms: _148  and  _149
REMARK   59  A    between atoms: _154  and  _155
REMARK   60  A    between atoms: _157  and  _159
REMARK   61  A    between atoms: _159  and  _160
REMARK   62  A    between atoms: _159  and  _162
REMARK   63  A    between atoms: _165  and  _167
REMARK   64  A    between atoms: _167  and  _168
REMARK   65  A    between atoms: _167  and  _170
REMARK   66  A    between atoms: _170  and  _171
REMARK   67  A    between atoms: _177  and  _178
REMARK   68  A    between atoms: _183  and  _185
REMARK   69  A    between atoms: _185  and  _186
REMARK   70  A    between atoms: _185  and  _188
REMARK   71  A    between atoms: _188  and  _189
REMARK   72  A    between atoms: _191  and  _193
REMARK   73  A    between atoms: _193  and  _194
REMARK   74  A    between atoms: _193  and  _196
REMARK   75  A    between atoms: _196  and  _197
REMARK   76  A    between atoms: _197  and  _198
REMARK   77  A    between atoms: _201  and  _203
REMARK   78  A    between atoms: _203  and  _204
REMARK   79  A    between atoms: _203  and  _206
REMARK   80  A    between atoms: _206  and  _207
REMARK   81  A    between atoms: _212  and  _213
REMARK   82  A    between atoms: _215  and  _217
REMARK   83  A    between atoms: _217  and  _218
REMARK   84  A    between atoms: _217  and  _220
REMARK   85  A    between atoms: _220  and  _221
REMARK   86  A    between atoms: _226  and  _228
REMARK   87  A    between atoms: _228  and  _229
REMARK   88  A    between atoms: _228  and  _231
REMARK   89  A    between atoms: _231  and  _232
REMARK   90  A    between atoms: _237  and  _239
REMARK   91  A    between atoms: _239  and  _240
REMARK   92  A    between atoms: _239  and  _242
REMARK   93  A    between atoms: _242  and  _243
REMARK   94  A    between atoms: _243  and  _244
REMARK   95  A    between atoms: _246  and  _248
REMARK   96  A    between atoms: _248  and  _249
REMARK   97  A    between atoms: _248  and  _251
REMARK   98  A    between atoms: _251  and  _252
REMARK   99  A    between atoms: _257  and  _258
REMARK  100  A    between atoms: _260  and  _262
REMARK  101  A    between atoms: _262  and  _263
REMARK  102  A    between atoms: _262  and  _265
REMARK  103  A    between atoms: _265  and  _266
REMARK  104  A    between atoms: _269  and  _271
REMARK  105  A    between atoms: _271  and  _272
REMARK  106  A    between atoms: _271  and  _274
REMARK  107  A    between atoms: _274  and  _275
REMARK  108  A    between atoms: _275  and  _492
REMARK  109  A    between atoms: _276  and  _278
REMARK  110  A    between atoms: _278  and  _279
REMARK  111  A    between atoms: _278  and  _281
REMARK  112  A    between atoms: _281  and  _282
REMARK  113  A    between atoms: _285  and  _287
REMARK  114  A    between atoms: _287  and  _288
REMARK  115  A    between atoms: _287  and  _290
REMARK  116  A    between atoms: _290  and  _291
REMARK  117  A    between atoms: _296  and  _297
REMARK  118  A    between atoms: _299  and  _301
REMARK  119  A    between atoms: _301  and  _302
REMARK  120  A    between atoms: _301  and  _304
REMARK  121  A    between atoms: _304  and  _305
REMARK  122  A    between atoms: _310  and  _311
REMARK  123  A    between atoms: _313  and  _315
REMARK  124  A    between atoms: _315  and  _316
REMARK  125  A    between atoms: _315  and  _318
REMARK  126  A    between atoms: _318  and  _319
REMARK  127  A    between atoms: _319  and  _320
REMARK  128  A    between atoms: _323  and  _325
REMARK  129  A    between atoms: _325  and  _326
REMARK  130  A    between atoms: _325  and  _328
REMARK  131  A    between atoms: _328  and  _329
REMARK  132  A    between atoms: _334  and  _335
REMARK  133  A    between atoms: _337  and  _339
REMARK  134  A    between atoms: _339  and  _340
REMARK  135  A    between atoms: _339  and  _342
REMARK  136  A    between atoms: _342  and  _343
REMARK  137  A    between atoms: _348  and  _350
REMARK  138  A    between atoms: _350  and  _351
REMARK  139  A    between atoms: _350  and  _353
REMARK  140  A    between atoms: _353  and  _354
REMARK  141  A    between atoms: _357  and  _359
REMARK  142  A    between atoms: _359  and  _360
REMARK  143  A    between atoms: _359  and  _362
REMARK  144  A    between atoms: _362  and  _363
REMARK  145  A    between atoms: _368  and  _370
REMARK  146  A    between atoms: _370  and  _371
REMARK  147  A    between atoms: _370  and  _373
REMARK  148  A    between atoms: _373  and  _374
REMARK  149  A    between atoms: _384  and  _386
REMARK  150  A    between atoms: _386  and  _387
REMARK  151  A    between atoms: _386  and  _389
REMARK  152  A    between atoms: _389  and  _390
REMARK  153  A    between atoms: _396  and  _398
REMARK  154  A    between atoms: _398  and  _399
REMARK  155  A    between atoms: _398  and  _401
REMARK  156  A    between atoms: _401  and  _402
REMARK  157  A    between atoms: _405  and  _407
REMARK  158  A    between atoms: _407  and  _408
REMARK  159  A    between atoms: _407  and  _410
REMARK  160  A    between atoms: _410  and  _411
REMARK  161  A    between atoms: _414  and  _416
REMARK  162  A    between atoms: _416  and  _417
REMARK  163  A    between atoms: _416  and  _419
REMARK  164  A    between atoms: _419  and  _420
REMARK  165  A    between atoms: _420  and  _421
REMARK  166  A    between atoms: _421  and  _422
REMARK  167  A    between atoms: _431  and  _433
REMARK  168  A    between atoms: _433  and  _434
REMARK  169  A    between atoms: _433  and  _436
REMARK  170  A    between atoms: _436  and  _437
REMARK  171  A    between atoms: _442  and  _444
REMARK  172  A    between atoms: _444  and  _445
REMARK  173  A    between atoms: _444  and  _447
REMARK  174  A    between atoms: _447  and  _448
REMARK  175  A    between atoms: _449  and  _450
REMARK  176  A    between atoms: _459  and  _461
REMARK  177  A    between atoms: _461  and  _462
REMARK  178  A    between atoms: _465  and  _467
REMARK  179  A    between atoms: _467  and  _468
REMARK  180  A    between atoms: _470  and  _472
REMARK  181  A    between atoms: _472  and  _473
REMARK  182  A    between atoms: _472  and  _475
REMARK  183  A    between atoms: _475  and  _476
REMARK  184  A    between atoms: _486  and  _488
REMARK  185  A    between atoms: _488  and  _489
REMARK  186  A    between atoms: _488  and  _491
REMARK  187  A    between atoms: _491  and  _492
REMARK  188  A    between atoms: _493  and  _495
REMARK  189  A    between atoms: _495  and  _496
REMARK  190  A    between atoms: _499  and  _501
REMARK  191  A    between atoms: _501  and  _502
REMARK  192  A    between atoms: _501  and  _504
REMARK  193  A    between atoms: _504  and  _505
REMARK  194  A    between atoms: _508  and  _510
REMARK  195  A    between atoms: _510  and  _511
REMARK  196  A    between atoms: _510  and  _513
REMARK  197  A    between atoms: _513  and  _514
REMARK  198  A    between atoms: _519  and  _520
REMARK  199  A    between atoms: _522  and  _524
REMARK  200  A    between atoms: _524  and  _525
REMARK  201  A    between atoms: _524  and  _527
REMARK  202  A    between atoms: _527  and  _528
REMARK  203  A    between atoms: _530  and  _532
REMARK  204  A    between atoms: _532  and  _533
REMARK  205  A    between atoms: _532  and  _535
REMARK  206  A    between atoms: _535  and  _536
REMARK  207  A    between atoms: _542  and  _544
REMARK  208  A    between atoms: _544  and  _545
REMARK  209  A    between atoms: _544  and  _547
REMARK  210  A    between atoms: _547  and  _548
REMARK  211  A    between atoms: _551  and  _553
REMARK  212  A    between atoms: _553  and  _554
REMARK  213  A    between atoms: _553  and  _556
REMARK  214  A    between atoms: _556  and  _557
REMARK  215  A    between atoms: _559  and  _561
REMARK  216  A    between atoms: _561  and  _562
REMARK  217  A    between atoms: _561  and  _564
REMARK  218  A    between atoms: _564  and  _565
REMARK  219  A    between atoms: _570  and  _572
REMARK  220  A    between atoms: _572  and  _573
REMARK  221  A    between atoms: _572  and  _575
REMARK  222  A    between atoms: _575  and  _576
REMARK  223  A    between atoms: _581  and  _583
REMARK  224  A    between atoms: _583  and  _584
REMARK  225  A    between atoms: _583  and  _586
REMARK  226  A    between atoms: _586  and  _587
REMARK  227  A    between atoms: _590  and  _592
REMARK  228  A    between atoms: _592  and  _593
REMARK  229  A    between atoms: _596  and  _598
REMARK  230  A    between atoms: _598  and  _599
REMARK  231  A    between atoms: _598  and  _601
REMARK  232  A    between atoms: _601  and  _602
REMARK  233  A    between atoms: _607  and  _608
REMARK  234  A    between atoms: _610  and  _612
REMARK  235  A    between atoms: _612  and  _613
REMARK  236  A    between atoms: _612  and  _615
REMARK  237  A    between atoms: _615  and  _616
REMARK  238  A    between atoms: _621  and  _622
REMARK  239  A    between atoms: _624  and  _626
REMARK  240  A    between atoms: _626  and  _627
REMARK  241  A    between atoms: _626  and  _629
REMARK  242  A    between atoms: _632  and  _634
REMARK  243  A    between atoms: _634  and  _635
REMARK  244  A    between atoms: _634  and  _637
REMARK  245  A    between atoms: _637  and  _638
REMARK  246  A    between atoms: _643  and  _645
REMARK  247  A    between atoms: _645  and  _646
REMARK  248  A    between atoms: _649  and  _651
REMARK  249  A    between atoms: _651  and  _652
REMARK  250  A    between atoms: _651  and  _654
REMARK  251  A    between atoms: _654  and  _655
REMARK  252  A    between atoms: _655  and  _656
REMARK  253  A    between atoms: _656  and  _657
REMARK  254  A    between atoms: _666  and  _668
REMARK  255  A    between atoms: _668  and  _669
REMARK  256  A    between atoms: _668  and  _671
REMARK  257  A    between atoms: _671  and  _672
REMARK  258  A    between atoms: _675  and  _677
REMARK  259  A    between atoms: _677  and  _678
REMARK  260  A    between atoms: _677  and  _680
REMARK  261  A    between atoms: _680  and  _681
REMARK  262  A    between atoms: _684  and  _686
REMARK  263  A    between atoms: _686  and  _687
REMARK  264  A    between atoms: _686  and  _689
REMARK  265  A    between atoms: _689  and  _690
REMARK                            x       y       z     vdW  Elec       q    Type
REMARK                         _______ _______ _______ _____ _____    ______ ____
ROOT
ATOM      1  CA  GLU A   1       1.702  22.349  27.806  0.00  0.00    +0.134 C 
ENDROOT
BRANCH   1   2
ATOM      2  N   GLU A   1       0.311  22.058  27.528  0.00  0.00    -0.239 NA
ATOM      3  H   GLU A   1      -0.101  22.497  26.680  0.00  0.00    +0.142 HD
ENDBRANCH   1   2
BRANCH   1   4
ATOM      4  C   GLU A   1       1.746  23.436  28.872  0.00  0.00    +0.224 C 
ATOM      5  O   GLU A   1       1.168  24.517  28.697  0.00  0.00    -0.287 OA
ENDBRANCH   1   4
BRANCH   1   6
ATOM      6  CB  GLU A   1       2.378  22.844  26.521  0.00  0.00    +0.037 C 
BRANCH   6   7
ATOM      7  CG  GLU A   1       3.862  23.205  26.679  0.00  0.00    +0.116 C 
BRANCH   7   8
ATOM      8  CD  GLU A   1       4.320  23.744  25.329  0.00  0.00    +0.365 C 
ATOM      9  OE2 GLU A   1       4.019  24.919  25.013  0.00  0.00    -0.246 OA
ATOM     10  OE1 GLU A   1       4.923  22.923  24.607  0.00  0.00    -0.246 OA
ENDBRANCH   7   8
ENDBRANCH   6   7
ENDBRANCH   1   6
TORSDOF 5
REMARK  Name = ../refined-set-2016/1b2h/1b2h_pocket.pdb
REMARK  265 active torsions:
REMARK  status: ('A' for Active; 'I' for Inactive)
REMARK    1  A    between atoms: _1  and  _3
REMARK    2  A    between atoms: _3  and  _4
REMARK    3  A    between atoms: _3  and  _6
REMARK    4  A    between atoms: _6  and  _7
REMARK    5  A    between atoms: _12  and  _14
REMARK    6  A    between atoms: _14  and  _15
REMARK    7  A    between atoms: _17  and  _19
REMARK    8  A    between atoms: _19  and  _20
REMARK    9  A    between atoms: _19  and  _22
REMARK   10  A    between atoms: _22  and  _23
REMARK   11  A    between atoms: _25  and  _27
REMARK   12  A    between atoms: _27  and  _28
REMARK   13  A    between atoms: _27  and  _30
REMARK   14  A    between atoms: _30  and  _31
REMARK   15  A    between atoms: _31  and  _32
REMARK   16  A    between atoms: _37  and  _39
REMARK   17  A    between atoms: _39  and  _40
REMARK   18  A    between atoms: _39  and  _42
REMARK   19  A    between atoms: _42  and  _43
REMARK   20  A    between atoms: _46  and  _48
REMARK   21  A    between atoms: _48  and  _49
REMARK   22  A    between atoms: _48  and  _51
REMARK   23  A    between atoms: _52  and  _53
REMARK   24  A    between atoms: _56  and  _58
REMARK   25  A    between atoms: _58  and  _59
REMARK   26  A    between atoms: _61  and  _63
REMARK   27  A    between atoms: _63  and  _64
REMARK   28  A    between atoms: _63  and  _66
REMARK   29  A    between atoms: _70  and  _71
REMARK   30  A    between atoms: _76  and  _78
REMARK   31  A    between atoms: _78  and  _79
REMARK   32  A    between atoms: _78  and  _81
REMARK   33  A    between atoms: _81  and  _82
REMARK   34  A    between atoms: _82  and  _83
REMARK   35  A    between atoms: _86  and  _88
REMARK   36  A    between atoms: _88  and  _89
REMARK   37  A    between atoms: _88  and  _91
REMARK   38  A    between atoms: _91  and  _92
REMARK   39  A    between atoms: _94  and  _96
REMARK   40  A    between atoms: _96  and  _97
REMARK   41  A    between atoms: _96  and  _99
REMARK   42  A    between atoms: _99  and  _100
REMARK   43  A    between atoms: _105  and  _107
REMARK   44  A    between atoms: _107  and  _108
REMARK   45  A    between atoms: _107  and  _110
REMARK   46  A    between atoms: _110  and  _111
REMARK   47  A    between atoms: _111  and  _112
REMARK   48  A    between atoms: _112  and  _113
REMARK   49  A    between atoms: _123  and  _124
REMARK   50  A    between atoms: _129  and  _131
REMARK   51  A    between atoms: _131  and  _132
REMARK   52  A    between atoms: _131  and  _134
REMARK   53  A    between atoms: _134  and  _135
REMARK   54  A    between atoms: _140  and  _141
REMARK   55  A    between atoms: _143  and  _145
REMARK   56  A    between atoms: _145  and  _146
REMARK   57  A    between atoms: _145  and  _148
REMARK   58  A    between atoms: _148  and  _149
REMARK   59  A    between atoms: _154  and  _155
REMARK   60  A    between atoms: _157  and  _159
REMARK   61  A    between atoms: _159  and  _160
REMARK   62  A    between atoms: _159  and  _162
REMARK   63  A    between atoms: _165  and  _167
REMARK   64  A    between atoms: _167  and  _168
REMARK   65  A    between atoms: _167  and  _170
REMARK   66  A    between atoms: _170  and  _171
REMARK   67  A    between atoms: _177  and  _178
REMARK   68  A    between atoms: _183  and  _185
REMARK   69  A    between atoms: _185  and  _186
REMARK   70  A    between atoms: _185  and  _188
REMARK   71  A    between atoms: _188  and  _189
REMARK   72  A    between atoms: _191  and  _193
REMARK   73  A    between atoms: _193  and  _194
REMARK   74  A    between atoms: _193  and  _196
REMARK   75  A    between atoms: _196  and  _197
REMARK   76  A    between atoms: _197  and  _198
REMARK   77  A    between atoms: _201  and  _203
REMARK   78  A    between atoms: _203  and  _204
REMARK   79  A    between atoms: _203  and  _206
REMARK   80  A    between atoms: _206  and  _207
REMARK   81  A    between atoms: _212  and  _213
REMARK   82  A    between atoms: _215  and  _217
REMARK   83  A    between atoms: _217  and  _218
REMARK   84  A    between atoms: _217  and  _220
REMARK   85  A    between atoms: _220  and  _221
REMARK   86  A    between atoms: _226  and  _228
REMARK   87  A    between atoms: _228  and  _229
REMARK   88  A    between atoms: _228  and  _231
REMARK   89  A    between atoms: _231  and  _232
REMARK   90  A    between atoms: _237  and  _239
REMARK   91  A    between atoms: _239  and  _240
REMARK   92  A    between atoms: _239  and  _242
REMARK   93  A    between atoms: _242  and  _243
REMARK   94  A    between atoms: _243  and  _244
REMARK   95  A    between atoms: _246  and  _248
REMARK   96  A    between atoms: _248  and  _249
REMARK   97  A    between atoms: _248  and  _251
REMARK   98  A    between atoms: _251  and  _252
REMARK   99  A    between atoms: _257  and  _258
REMARK  100  A    between atoms: _260  and  _262
REMARK  101  A    between atoms: _262  and  _263
REMARK  102  A    between atoms: _262  and  _265
REMARK  103  A    between atoms: _265  and  _266
REMARK  104  A    between atoms: _269  and  _271
REMARK  105  A    between atoms: _271  and  _272
REMARK  106  A    between atoms: _271  and  _274
REMARK  107  A    between atoms: _274  and  _275
REMARK  108  A    between atoms: _275  and  _492
REMARK  109  A    between atoms: _276  and  _278
REMARK  110  A    between atoms: _278  and  _279
REMARK  111  A    between atoms: _278  and  _281
REMARK  112  A    between atoms: _281  and  _282
REMARK  113  A    between atoms: _285  and  _287
REMARK  114  A    between atoms: _287  and  _288
REMARK  115  A    between atoms: _287  and  _290
REMARK  116  A    between atoms: _290  and  _291
REMARK  117  A    between atoms: _296  and  _297
REMARK  118  A    between atoms: _299  and  _301
REMARK  119  A    between atoms: _301  and  _302
REMARK  120  A    between atoms: _301  and  _304
REMARK  121  A    between atoms: _304  and  _305
REMARK  122  A    between atoms: _310  and  _311
REMARK  123  A    between atoms: _313  and  _315
REMARK  124  A    between atoms: _315  and  _316
REMARK  125  A    between atoms: _315  and  _318
REMARK  126  A    between atoms: _318  and  _319
REMARK  127  A    between atoms: _319  and  _320
REMARK  128  A    between atoms: _323  and  _325
REMARK  129  A    between atoms: _325  and  _326
REMARK  130  A    between atoms: _325  and  _328
REMARK  131  A    between atoms: _328  and  _329
REMARK  132  A    between atoms: _334  and  _335
REMARK  133  A    between atoms: _337  and  _339
REMARK  134  A    between atoms: _339  and  _340
REMARK  135  A    between atoms: _339  and  _342
REMARK  136  A    between atoms: _342  and  _343
REMARK  137  A    between atoms: _348  and  _350
REMARK  138  A    between atoms: _350  and  _351
REMARK  139  A    between atoms: _350  and  _353
REMARK  140  A    between atoms: _353  and  _354
REMARK  141  A    between atoms: _357  and  _359
REMARK  142  A    between atoms: _359  and  _360
REMARK  143  A    between atoms: _359  and  _362
REMARK  144  A    between atoms: _362  and  _363
REMARK  145  A    between atoms: _368  and  _370
REMARK  146  A    between atoms: _370  and  _371
REMARK  147  A    between atoms: _370  and  _373
REMARK  148  A    between atoms: _373  and  _374
REMARK  149  A    between atoms: _384  and  _386
REMARK  150  A    between atoms: _386  and  _387
REMARK  151  A    between atoms: _386  and  _389
REMARK  152  A    between atoms: _389  and  _390
REMARK  153  A    between atoms: _396  and  _398
REMARK  154  A    between atoms: _398  and  _399
REMARK  155  A    between atoms: _398  and  _401
REMARK  156  A    between atoms: _401  and  _402
REMARK  157  A    between atoms: _405  and  _407
REMARK  158  A    between atoms: _407  and  _408
REMARK  159  A    between atoms: _407  and  _410
REMARK  160  A    between atoms: _410  and  _411
REMARK  161  A    between atoms: _414  and  _416
REMARK  162  A    between atoms: _416  and  _417
REMARK  163  A    between atoms: _416  and  _419
REMARK  164  A    between atoms: _419  and  _420
REMARK  165  A    between atoms: _420  and  _421
REMARK  166  A    between atoms: _421  and  _422
REMARK  167  A    between atoms: _431  and  _433
REMARK  168  A    between atoms: _433  and  _434
REMARK  169  A    between atoms: _433  and  _436
REMARK  170  A    between atoms: _436  and  _437
REMARK  171  A    between atoms: _442  and  _444
REMARK  172  A    between atoms: _444  and  _445
REMARK  173  A    between atoms: _444  and  _447
REMARK  174  A    between atoms: _447  and  _448
REMARK  175  A    between atoms: _449  and  _450
REMARK  176  A    between atoms: _459  and  _461
REMARK  177  A    between atoms: _461  and  _462
REMARK  178  A    between atoms: _465  and  _467
REMARK  179  A    between atoms: _467  and  _468
REMARK  180  A    between atoms: _470  and  _472
REMARK  181  A    between atoms: _472  and  _473
REMARK  182  A    between atoms: _472  and  _475
REMARK  183  A    between atoms: _475  and  _476
REMARK  184  A    between atoms: _486  and  _488
REMARK  185  A    between atoms: _488  and  _489
REMARK  186  A    between atoms: _488  and  _491
REMARK  187  A    between atoms: _491  and  _492
REMARK  188  A    between atoms: _493  and  _495
REMARK  189  A    between atoms: _495  and  _496
REMARK  190  A    between atoms: _499  and  _501
REMARK  191  A    between atoms: _501  and  _502
REMARK  192  A    between atoms: _501  and  _504
REMARK  193  A    between atoms: _504  and  _505
REMARK  194  A    between atoms: _508  and  _510
REMARK  195  A    between atoms: _510  and  _511
REMARK  196  A    between atoms: _510  and  _513
REMARK  197  A    between atoms: _513  and  _514
REMARK  198  A    between atoms: _519  and  _520
REMARK  199  A    between atoms: _522  and  _524
REMARK  200  A    between atoms: _524  and  _525
REMARK  201  A    between atoms: _524  and  _527
REMARK  202  A    between atoms: _527  and  _528
REMARK  203  A    between atoms: _530  and  _532
REMARK  204  A    between atoms: _532  and  _533
REMARK  205  A    between atoms: _532  and  _535
REMARK  206  A    between atoms: _535  and  _536
REMARK  207  A    between atoms: _542  and  _544
REMARK  208  A    between atoms: _544  and  _545
REMARK  209  A    between atoms: _544  and  _547
REMARK  210  A    between atoms: _547  and  _548
REMARK  211  A    between atoms: _551  and  _553
REMARK  212  A    between atoms: _553  and  _554
REMARK  213  A    between atoms: _553  and  _556
REMARK  214  A    between atoms: _556  and  _557
REMARK  215  A    between atoms: _559  and  _561
REMARK  216  A    between atoms: _561  and  _562
REMARK  217  A    between atoms: _561  and  _564
REMARK  218  A    between atoms: _564  and  _565
REMARK  219  A    between atoms: _570  and  _572
REMARK  220  A    between atoms: _572  and  _573
REMARK  221  A    between atoms: _572  and  _575
REMARK  222  A    between atoms: _575  and  _576
REMARK  223  A    between atoms: _581  and  _583
REMARK  224  A    between atoms: _583  and  _584
REMARK  225  A    between atoms: _583  and  _586
REMARK  226  A    between atoms: _586  and  _587
REMARK  227  A    between atoms: _590  and  _592
REMARK  228  A    between atoms: _592  and  _593
REMARK  229  A    between atoms: _596  and  _598
REMARK  230  A    between atoms: _598  and  _599
REMARK  231  A    between atoms: _598  and  _601
REMARK  232  A    between atoms: _601  and  _602
REMARK  233  A    between atoms: _607  and  _608
REMARK  234  A    between atoms: _610  and  _612
REMARK  235  A    between atoms: _612  and  _613
REMARK  236  A    between atoms: _612  and  _615
REMARK  237  A    between atoms: _615  and  _616
REMARK  238  A    between atoms: _621  and  _622
REMARK  239  A    between atoms: _624  and  _626
REMARK  240  A    between atoms: _626  and  _627
REMARK  241  A    between atoms: _626  and  _629
REMARK  242  A    between atoms: _632  and  _634
REMARK  243  A    between atoms: _634  and  _635
REMARK  244  A    between atoms: _634  and  _637
REMARK  245  A    between atoms: _637  and  _638
REMARK  246  A    between atoms: _643  and  _645
REMARK  247  A    between atoms: _645  and  _646
REMARK  248  A    between atoms: _649  and  _651
REMARK  249  A    between atoms: _651  and  _652
REMARK  250  A    between atoms: _651  and  _654
REMARK  251  A    between atoms: _654  and  _655
REMARK  252  A    between atoms: _655  and  _656
REMARK  253  A    between atoms: _656  and  _657
REMARK  254  A    between atoms: _666  and  _668
REMARK  255  A    between atoms: _668  and  _669
REMARK  256  A    between atoms: _668  and  _671
REMARK  257  A    between atoms: _671  and  _672
REMARK  258  A    between atoms: _675  and  _677
REMARK  259  A    between atoms: _677  and  _678
REMARK  260  A    between atoms: _677  and  _680
REMARK  261  A    between atoms: _680  and  _681
REMARK  262  A    between atoms: _684  and  _686
REMARK  263  A    between atoms: _686  and  _687
REMARK  264  A    between atoms: _686  and  _689
REMARK  265  A    between atoms: _689  and  _690
REMARK                            x       y       z     vdW  Elec       q    Type
REMARK                         _______ _______ _______ _____ _____    ______ ____
ROOT
ATOM      1  CG  TYR A   1       5.023  13.726  25.650  0.00  0.00    -0.020 A 
ATOM      2  CD2 TYR A   1       6.392  13.789  25.394  0.00  0.00    -0.001 A 
ATOM      3  CE2 TYR A   1       6.902  14.728  24.531  0.00  0.00    +0.036 A 
ATOM      4  CZ  TYR A   1       6.045  15.595  23.870  0.00  0.00    +0.134 A 
ATOM      5  CE1 TYR A   1       4.697  15.553  24.100  0.00  0.00    +0.036 A 
ATOM      6  CD1 TYR A   1       4.183  14.603  24.987  0.00  0.00    -0.001 A 
ENDROOT
BRANCH   4   7
ATOM      7  OH  TYR A   1       6.588  16.541  23.028  0.00  0.00    -0.506 OA
ATOM      8  HH  TYR A   1       7.196  17.129  23.542  0.00  0.00    +0.292 HD
ENDBRANCH   4   7
BRANCH   1   9
ATOM      9  CB  TYR A   1       4.490  12.713  26.638  0.00  0.00    +0.051 C 
BRANCH   9  10
ATOM     10  CA  TYR A   1       3.243  11.947  26.272  0.00  0.00    +0.137 C 
BRANCH  10  11
ATOM     11  N   TYR A   1       2.846  11.060  27.374  0.00  0.00    -0.239 NA
ATOM     12  H   TYR A   1       3.580  10.608  27.956  0.00  0.00    +0.142 HD
ENDBRANCH  10  11
BRANCH  10  13
ATOM     13  C   TYR A   1       3.424  11.108  25.007  0.00  0.00    +0.224 C 
ATOM     14  O   TYR A   1       2.628  11.206  24.066  0.00  0.00    -0.287 OA
ENDBRANCH  10  13
ENDBRANCH   9  10
ENDBRANCH   1   9
TORSDOF 5
REMARK  Name = ../refined-set-2016/1b2h/1b2h_pocket.pdb
REMARK  265 active torsions:
REMARK  status: ('A' for Active; 'I' for Inactive)
REMARK    1  A    between atoms: _1  and  _3
REMARK    2  A    between atoms: _3  and  _4
REMARK    3  A    between atoms: _3  and  _6
REMARK    4  A    between atoms: _6  and  _7
REMARK    5  A    between atoms: _12  and  _14
REMARK    6  A    between atoms: _14  and  _15
REMARK    7  A    between atoms: _17  and  _19
REMARK    8  A    between atoms: _19  and  _20
REMARK    9  A    between atoms: _19  and  _22
REMARK   10  A    between atoms: _22  and  _23
REMARK   11  A    between atoms: _25  and  _27
REMARK   12  A    between atoms: _27  and  _28
REMARK   13  A    between atoms: _27  and  _30
REMARK   14  A    between atoms: _30  and  _31
REMARK   15  A    between atoms: _31  and  _32
REMARK   16  A    between atoms: _37  and  _39
REMARK   17  A    between atoms: _39  and  _40
REMARK   18  A    between atoms: _39  and  _42
REMARK   19  A    between atoms: _42  and  _43
REMARK   20  A    between atoms: _46  and  _48
REMARK   21  A    between atoms: _48  and  _49
REMARK   22  A    between atoms: _48  and  _51
REMARK   23  A    between atoms: _52  and  _53
REMARK   24  A    between atoms: _56  and  _58
REMARK   25  A    between atoms: _58  and  _59
REMARK   26  A    between atoms: _61  and  _63
REMARK   27  A    between atoms: _63  and  _64
REMARK   28  A    between atoms: _63  and  _66
REMARK   29  A    between atoms: _70  and  _71
REMARK   30  A    between atoms: _76  and  _78
REMARK   31  A    between atoms: _78  and  _79
REMARK   32  A    between atoms: _78  and  _81
REMARK   33  A    between atoms: _81  and  _82
REMARK   34  A    between atoms: _82  and  _83
REMARK   35  A    between atoms: _86  and  _88
REMARK   36  A    between atoms: _88  and  _89
REMARK   37  A    between atoms: _88  and  _91
REMARK   38  A    between atoms: _91  and  _92
REMARK   39  A    between atoms: _94  and  _96
REMARK   40  A    between atoms: _96  and  _97
REMARK   41  A    between atoms: _96  and  _99
REMARK   42  A    between atoms: _99  and  _100
REMARK   43  A    between atoms: _105  and  _107
REMARK   44  A    between atoms: _107  and  _108
REMARK   45  A    between atoms: _107  and  _110
REMARK   46  A    between atoms: _110  and  _111
REMARK   47  A    between atoms: _111  and  _112
REMARK   48  A    between atoms: _112  and  _113
REMARK   49  A    between atoms: _123  and  _124
REMARK   50  A    between atoms: _129  and  _131
REMARK   51  A    between atoms: _131  and  _132
REMARK   52  A    between atoms: _131  and  _134
REMARK   53  A    between atoms: _134  and  _135
REMARK   54  A    between atoms: _140  and  _141
REMARK   55  A    between atoms: _143  and  _145
REMARK   56  A    between atoms: _145  and  _146
REMARK   57  A    between atoms: _145  and  _148
REMARK   58  A    between atoms: _148  and  _149
REMARK   59  A    between atoms: _154  and  _155
REMARK   60  A    between atoms: _157  and  _159
REMARK   61  A    between atoms: _159  and  _160
REMARK   62  A    between atoms: _159  and  _162
REMARK   63  A    between atoms: _165  and  _167
REMARK   64  A    between atoms: _167  and  _168
REMARK   65  A    between atoms: _167  and  _170
REMARK   66  A    between atoms: _170  and  _171
REMARK   67  A    between atoms: _177  and  _178
REMARK   68  A    between atoms: _183  and  _185
REMARK   69  A    between atoms: _185  and  _186
REMARK   70  A    between atoms: _185  and  _188
REMARK   71  A    between atoms: _188  and  _189
REMARK   72  A    between atoms: _191  and  _193
REMARK   73  A    between atoms: _193  and  _194
REMARK   74  A    between atoms: _193  and  _196
REMARK   75  A    between atoms: _196  and  _197
REMARK   76  A    between atoms: _197  and  _198
REMARK   77  A    between atoms: _201  and  _203
REMARK   78  A    between atoms: _203  and  _204
REMARK   79  A    between atoms: _203  and  _206
REMARK   80  A    between atoms: _206  and  _207
REMARK   81  A    between atoms: _212  and  _213
REMARK   82  A    between atoms: _215  and  _217
REMARK   83  A    between atoms: _217  and  _218
REMARK   84  A    between atoms: _217  and  _220
REMARK   85  A    between atoms: _220  and  _221
REMARK   86  A    between atoms: _226  and  _228
REMARK   87  A    between atoms: _228  and  _229
REMARK   88  A    between atoms: _228  and  _231
REMARK   89  A    between atoms: _231  and  _232
REMARK   90  A    between atoms: _237  and  _239
REMARK   91  A    between atoms: _239  and  _240
REMARK   92  A    between atoms: _239  and  _242
REMARK   93  A    between atoms: _242  and  _243
REMARK   94  A    between atoms: _243  and  _244
REMARK   95  A    between atoms: _246  and  _248
REMARK   96  A    between atoms: _248  and  _249
REMARK   97  A    between atoms: _248  and  _251
REMARK   98  A    between atoms: _251  and  _252
REMARK   99  A    between atoms: _257  and  _258
REMARK  100  A    between atoms: _260  and  _262
REMARK  101  A    between atoms: _262  and  _263
REMARK  102  A    between atoms: _262  and  _265
REMARK  103  A    between atoms: _265  and  _266
REMARK  104  A    between atoms: _269  and  _271
REMARK  105  A    between atoms: _271  and  _272
REMARK  106  A    between atoms: _271  and  _274
REMARK  107  A    between atoms: _274  and  _275
REMARK  108  A    between atoms: _275  and  _492
REMARK  109  A    between atoms: _276  and  _278
REMARK  110  A    between atoms: _278  and  _279
REMARK  111  A    between atoms: _278  and  _281
REMARK  112  A    between atoms: _281  and  _282
REMARK  113  A    between atoms: _285  and  _287
REMARK  114  A    between atoms: _287  and  _288
REMARK  115  A    between atoms: _287  and  _290
REMARK  116  A    between atoms: _290  and  _291
REMARK  117  A    between atoms: _296  and  _297
REMARK  118  A    between atoms: _299  and  _301
REMARK  119  A    between atoms: _301  and  _302
REMARK  120  A    between atoms: _301  and  _304
REMARK  121  A    between atoms: _304  and  _305
REMARK  122  A    between atoms: _310  and  _311
REMARK  123  A    between atoms: _313  and  _315
REMARK  124  A    between atoms: _315  and  _316
REMARK  125  A    between atoms: _315  and  _318
REMARK  126  A    between atoms: _318  and  _319
REMARK  127  A    between atoms: _319  and  _320
REMARK  128  A    between atoms: _323  and  _325
REMARK  129  A    between atoms: _325  and  _326
REMARK  130  A    between atoms: _325  and  _328
REMARK  131  A    between atoms: _328  and  _329
REMARK  132  A    between atoms: _334  and  _335
REMARK  133  A    between atoms: _337  and  _339
REMARK  134  A    between atoms: _339  and  _340
REMARK  135  A    between atoms: _339  and  _342
REMARK  136  A    between atoms: _342  and  _343
REMARK  137  A    between atoms: _348  and  _350
REMARK  138  A    between atoms: _350  and  _351
REMARK  139  A    between atoms: _350  and  _353
REMARK  140  A    between atoms: _353  and  _354
REMARK  141  A    between atoms: _357  and  _359
REMARK  142  A    between atoms: _359  and  _360
REMARK  143  A    between atoms: _359  and  _362
REMARK  144  A    between atoms: _362  and  _363
REMARK  145  A    between atoms: _368  and  _370
REMARK  146  A    between atoms: _370  and  _371
REMARK  147  A    between atoms: _370  and  _373
REMARK  148  A    between atoms: _373  and  _374
REMARK  149  A    between atoms: _384  and  _386
REMARK  150  A    between atoms: _386  and  _387
REMARK  151  A    between atoms: _386  and  _389
REMARK  152  A    between atoms: _389  and  _390
REMARK  153  A    between atoms: _396  and  _398
REMARK  154  A    between atoms: _398  and  _399
REMARK  155  A    between atoms: _398  and  _401
REMARK  156  A    between atoms: _401  and  _402
REMARK  157  A    between atoms: _405  and  _407
REMARK  158  A    between atoms: _407  and  _408
REMARK  159  A    between atoms: _407  and  _410
REMARK  160  A    between atoms: _410  and  _411
REMARK  161  A    between atoms: _414  and  _416
REMARK  162  A    between atoms: _416  and  _417
REMARK  163  A    between atoms: _416  and  _419
REMARK  164  A    between atoms: _419  and  _420
REMARK  165  A    between atoms: _420  and  _421
REMARK  166  A    between atoms: _421  and  _422
REMARK  167  A    between atoms: _431  and  _433
REMARK  168  A    between atoms: _433  and  _434
REMARK  169  A    between atoms: _433  and  _436
REMARK  170  A    between atoms: _436  and  _437
REMARK  171  A    between atoms: _442  and  _444
REMARK  172  A    between atoms: _444  and  _445
REMARK  173  A    between atoms: _444  and  _447
REMARK  174  A    between atoms: _447  and  _448
REMARK  175  A    between atoms: _449  and  _450
REMARK  176  A    between atoms: _459  and  _461
REMARK  177  A    between atoms: _461  and  _462
REMARK  178  A    between atoms: _465  and  _467
REMARK  179  A    between atoms: _467  and  _468
REMARK  180  A    between atoms: _470  and  _472
REMARK  181  A    between atoms: _472  and  _473
REMARK  182  A    between atoms: _472  and  _475
REMARK  183  A    between atoms: _475  and  _476
REMARK  184  A    between atoms: _486  and  _488
REMARK  185  A    between atoms: _488  and  _489
REMARK  186  A    between atoms: _488  and  _491
REMARK  187  A    between atoms: _491  and  _492
REMARK  188  A    between atoms: _493  and  _495
REMARK  189  A    between atoms: _495  and  _496
REMARK  190  A    between atoms: _499  and  _501
REMARK  191  A    between atoms: _501  and  _502
REMARK  192  A    between atoms: _501  and  _504
REMARK  193  A    between atoms: _504  and  _505
REMARK  194  A    between atoms: _508  and  _510
REMARK  195  A    between atoms: _510  and  _511
REMARK  196  A    between atoms: _510  and  _513
REMARK  197  A    between atoms: _513  and  _514
REMARK  198  A    between atoms: _519  and  _520
REMARK  199  A    between atoms: _522  and  _524
REMARK  200  A    between atoms: _524  and  _525
REMARK  201  A    between atoms: _524  and  _527
REMARK  202  A    between atoms: _527  and  _528
REMARK  203  A    between atoms: _530  and  _532
REMARK  204  A    between atoms: _532  and  _533
REMARK  205  A    between atoms: _532  and  _535
REMARK  206  A    between atoms: _535  and  _536
REMARK  207  A    between atoms: _542  and  _544
REMARK  208  A    between atoms: _544  and  _545
REMARK  209  A    between atoms: _544  and  _547
REMARK  210  A    between atoms: _547  and  _548
REMARK  211  A    between atoms: _551  and  _553
REMARK  212  A    between atoms: _553  and  _554
REMARK  213  A    between atoms: _553  and  _556
REMARK  214  A    between atoms: _556  and  _557
REMARK  215  A    between atoms: _559  and  _561
REMARK  216  A    between atoms: _561  and  _562
REMARK  217  A    between atoms: _561  and  _564
REMARK  218  A    between atoms: _564  and  _565
REMARK  219  A    between atoms: _570  and  _572
REMARK  220  A    between atoms: _572  and  _573
REMARK  221  A    between atoms: _572  and  _575
REMARK  222  A    between atoms: _575  and  _576
REMARK  223  A    between atoms: _581  and  _583
REMARK  224  A    between atoms: _583  and  _584
REMARK  225  A    between atoms: _583  and  _586
REMARK  226  A    between atoms: _586  and  _587
REMARK  227  A    between atoms: _590  and  _592
REMARK  228  A    between atoms: _592  and  _593
REMARK  229  A    between atoms: _596  and  _598
REMARK  230  A    between atoms: _598  and  _599
REMARK  231  A    between atoms: _598  and  _601
REMARK  232  A    between atoms: _601  and  _602
REMARK  233  A    between atoms: _607  and  _608
REMARK  234  A    between atoms: _610  and  _612
REMARK  235  A    between atoms: _612  and  _613
REMARK  236  A    between atoms: _612  and  _615
REMARK  237  A    between atoms: _615  and  _616
REMARK  238  A    between atoms: _621  and  _622
REMARK  239  A    between atoms: _624  and  _626
REMARK  240  A    between atoms: _626  and  _627
REMARK  241  A    between atoms: _626  and  _629
REMARK  242  A    between atoms: _632  and  _634
REMARK  243  A    between atoms: _634  and  _635
REMARK  244  A    between atoms: _634  and  _637
REMARK  245  A    between atoms: _637  and  _638
REMARK  246  A    between atoms: _643  and  _645
REMARK  247  A    between atoms: _645  and  _646
REMARK  248  A    between atoms: _649  and  _651
REMARK  249  A    between atoms: _651  and  _652
REMARK  250  A    between atoms: _651  and  _654
REMARK  251  A    between atoms: _654  and  _655
REMARK  252  A    between atoms: _655  and  _656
REMARK  253  A    between atoms: _656  and  _657
REMARK  254  A    between atoms: _666  and  _668
REMARK  255  A    between atoms: _668  and  _669
REMARK  256  A    between atoms: _668  and  _671
REMARK  257  A    between atoms: _671  and  _672
REMARK  258  A    between atoms: _675  and  _677
REMARK  259  A    between atoms: _677  and  _678
REMARK  260  A    between atoms: _677  and  _680
REMARK  261  A    between atoms: _680  and  _681
REMARK  262  A    between atoms: _684  and  _686
REMARK  263  A    between atoms: _686  and  _687
REMARK  264  A    between atoms: _686  and  _689
REMARK  265  A    between atoms: _689  and  _690
REMARK                            x       y       z     vdW  Elec       q    Type
REMARK                         _______ _______ _______ _____ _____    ______ ____
ROOT
ATOM      1  CB  ASN A   1      -2.902  27.863  17.085  0.00  0.00    +0.110 C 
ENDROOT
BRANCH   1   2
ATOM      2  CG  ASN A   1      -3.220  26.377  17.050  0.00  0.00    +0.221 C 
ATOM      3  OD1 ASN A   1      -3.139  25.703  18.075  0.00  0.00    -0.275 OA
ATOM      4  ND2 ASN A   1      -3.558  25.856  15.857  0.00  0.00    -0.329 N 
ATOM      5 HD21 ASN A   1      -3.765  24.840  15.773  0.00  0.00    +0.145 HD
ATOM      6 HD22 ASN A   1      -3.613  26.469  15.019  0.00  0.00    +0.145 HD
ENDBRANCH   1   2
BRANCH   1   7
ATOM      7  CA  ASN A   1      -3.817  28.684  17.988  0.00  0.00    +0.142 C 
BRANCH   7   8
ATOM      8  N   ASN A   1      -3.878  28.116  19.336  0.00  0.00    -0.239 NA
ATOM      9  H   ASN A   1      -3.662  27.112  19.498  0.00  0.00    +0.142 HD
ENDBRANCH   7   8
BRANCH   7  10
ATOM     10  C   ASN A   1      -5.240  28.751  17.435  0.00  0.00    +0.225 C 
ATOM     11  O   ASN A   1      -6.034  27.808  17.518  0.00  0.00    -0.287 OA
ENDBRANCH   7  10
ENDBRANCH   1   7
TORSDOF 4
REMARK  Name = ../refined-set-2016/1b2h/1b2h_pocket.pdb
REMARK  265 active torsions:
REMARK  status: ('A' for Active; 'I' for Inactive)
REMARK    1  A    between atoms: _1  and  _3
REMARK    2  A    between atoms: _3  and  _4
REMARK    3  A    between atoms: _3  and  _6
REMARK    4  A    between atoms: _6  and  _7
REMARK    5  A    between atoms: _12  and  _14
REMARK    6  A    between atoms: _14  and  _15
REMARK    7  A    between atoms: _17  and  _19
REMARK    8  A    between atoms: _19  and  _20
REMARK    9  A    between atoms: _19  and  _22
REMARK   10  A    between atoms: _22  and  _23
REMARK   11  A    between atoms: _25  and  _27
REMARK   12  A    between atoms: _27  and  _28
REMARK   13  A    between atoms: _27  and  _30
REMARK   14  A    between atoms: _30  and  _31
REMARK   15  A    between atoms: _31  and  _32
REMARK   16  A    between atoms: _37  and  _39
REMARK   17  A    between atoms: _39  and  _40
REMARK   18  A    between atoms: _39  and  _42
REMARK   19  A    between atoms: _42  and  _43
REMARK   20  A    between atoms: _46  and  _48
REMARK   21  A    between atoms: _48  and  _49
REMARK   22  A    between atoms: _48  and  _51
REMARK   23  A    between atoms: _52  and  _53
REMARK   24  A    between atoms: _56  and  _58
REMARK   25  A    between atoms: _58  and  _59
REMARK   26  A    between atoms: _61  and  _63
REMARK   27  A    between atoms: _63  and  _64
REMARK   28  A    between atoms: _63  and  _66
REMARK   29  A    between atoms: _70  and  _71
REMARK   30  A    between atoms: _76  and  _78
REMARK   31  A    between atoms: _78  and  _79
REMARK   32  A    between atoms: _78  and  _81
REMARK   33  A    between atoms: _81  and  _82
REMARK   34  A    between atoms: _82  and  _83
REMARK   35  A    between atoms: _86  and  _88
REMARK   36  A    between atoms: _88  and  _89
REMARK   37  A    between atoms: _88  and  _91
REMARK   38  A    between atoms: _91  and  _92
REMARK   39  A    between atoms: _94  and  _96
REMARK   40  A    between atoms: _96  and  _97
REMARK   41  A    between atoms: _96  and  _99
REMARK   42  A    between atoms: _99  and  _100
REMARK   43  A    between atoms: _105  and  _107
REMARK   44  A    between atoms: _107  and  _108
REMARK   45  A    between atoms: _107  and  _110
REMARK   46  A    between atoms: _110  and  _111
REMARK   47  A    between atoms: _111  and  _112
REMARK   48  A    between atoms: _112  and  _113
REMARK   49  A    between atoms: _123  and  _124
REMARK   50  A    between atoms: _129  and  _131
REMARK   51  A    between atoms: _131  and  _132
REMARK   52  A    between atoms: _131  and  _134
REMARK   53  A    between atoms: _134  and  _135
REMARK   54  A    between atoms: _140  and  _141
REMARK   55  A    between atoms: _143  and  _145
REMARK   56  A    between atoms: _145  and  _146
REMARK   57  A    between atoms: _145  and  _148
REMARK   58  A    between atoms: _148  and  _149
REMARK   59  A    between atoms: _154  and  _155
REMARK   60  A    between atoms: _157  and  _159
REMARK   61  A    between atoms: _159  and  _160
REMARK   62  A    between atoms: _159  and  _162
REMARK   63  A    between atoms: _165  and  _167
REMARK   64  A    between atoms: _167  and  _168
REMARK   65  A    between atoms: _167  and  _170
REMARK   66  A    between atoms: _170  and  _171
REMARK   67  A    between atoms: _177  and  _178
REMARK   68  A    between atoms: _183  and  _185
REMARK   69  A    between atoms: _185  and  _186
REMARK   70  A    between atoms: _185  and  _188
REMARK   71  A    between atoms: _188  and  _189
REMARK   72  A    between atoms: _191  and  _193
REMARK   73  A    between atoms: _193  and  _194
REMARK   74  A    between atoms: _193  and  _196
REMARK   75  A    between atoms: _196  and  _197
REMARK   76  A    between atoms: _197  and  _198
REMARK   77  A    between atoms: _201  and  _203
REMARK   78  A    between atoms: _203  and  _204
REMARK   79  A    between atoms: _203  and  _206
REMARK   80  A    between atoms: _206  and  _207
REMARK   81  A    between atoms: _212  and  _213
REMARK   82  A    between atoms: _215  and  _217
REMARK   83  A    between atoms: _217  and  _218
REMARK   84  A    between atoms: _217  and  _220
REMARK   85  A    between atoms: _220  and  _221
REMARK   86  A    between atoms: _226  and  _228
REMARK   87  A    between atoms: _228  and  _229
REMARK   88  A    between atoms: _228  and  _231
REMARK   89  A    between atoms: _231  and  _232
REMARK   90  A    between atoms: _237  and  _239
REMARK   91  A    between atoms: _239  and  _240
REMARK   92  A    between atoms: _239  and  _242
REMARK   93  A    between atoms: _242  and  _243
REMARK   94  A    between atoms: _243  and  _244
REMARK   95  A    between atoms: _246  and  _248
REMARK   96  A    between atoms: _248  and  _249
REMARK   97  A    between atoms: _248  and  _251
REMARK   98  A    between atoms: _251  and  _252
REMARK   99  A    between atoms: _257  and  _258
REMARK  100  A    between atoms: _260  and  _262
REMARK  101  A    between atoms: _262  and  _263
REMARK  102  A    between atoms: _262  and  _265
REMARK  103  A    between atoms: _265  and  _266
REMARK  104  A    between atoms: _269  and  _271
REMARK  105  A    between atoms: _271  and  _272
REMARK  106  A    between atoms: _271  and  _274
REMARK  107  A    between atoms: _274  and  _275
REMARK  108  A    between atoms: _275  and  _492
REMARK  109  A    between atoms: _276  and  _278
REMARK  110  A    between atoms: _278  and  _279
REMARK  111  A    between atoms: _278  and  _281
REMARK  112  A    between atoms: _281  and  _282
REMARK  113  A    between atoms: _285  and  _287
REMARK  114  A    between atoms: _287  and  _288
REMARK  115  A    between atoms: _287  and  _290
REMARK  116  A    between atoms: _290  and  _291
REMARK  117  A    between atoms: _296  and  _297
REMARK  118  A    between atoms: _299  and  _301
REMARK  119  A    between atoms: _301  and  _302
REMARK  120  A    between atoms: _301  and  _304
REMARK  121  A    between atoms: _304  and  _305
REMARK  122  A    between atoms: _310  and  _311
REMARK  123  A    between atoms: _313  and  _315
REMARK  124  A    between atoms: _315  and  _316
REMARK  125  A    between atoms: _315  and  _318
REMARK  126  A    between atoms: _318  and  _319
REMARK  127  A    between atoms: _319  and  _320
REMARK  128  A    between atoms: _323  and  _325
REMARK  129  A    between atoms: _325  and  _326
REMARK  130  A    between atoms: _325  and  _328
REMARK  131  A    between atoms: _328  and  _329
REMARK  132  A    between atoms: _334  and  _335
REMARK  133  A    between atoms: _337  and  _339
REMARK  134  A    between atoms: _339  and  _340
REMARK  135  A    between atoms: _339  and  _342
REMARK  136  A    between atoms: _342  and  _343
REMARK  137  A    between atoms: _348  and  _350
REMARK  138  A    between atoms: _350  and  _351
REMARK  139  A    between atoms: _350  and  _353
REMARK  140  A    between atoms: _353  and  _354
REMARK  141  A    between atoms: _357  and  _359
REMARK  142  A    between atoms: _359  and  _360
REMARK  143  A    between atoms: _359  and  _362
REMARK  144  A    between atoms: _362  and  _363
REMARK  145  A    between atoms: _368  and  _370
REMARK  146  A    between atoms: _370  and  _371
REMARK  147  A    between atoms: _370  and  _373
REMARK  148  A    between atoms: _373  and  _374
REMARK  149  A    between atoms: _384  and  _386
REMARK  150  A    between atoms: _386  and  _387
REMARK  151  A    between atoms: _386  and  _389
REMARK  152  A    between atoms: _389  and  _390
REMARK  153  A    between atoms: _396  and  _398
REMARK  154  A    between atoms: _398  and  _399
REMARK  155  A    between atoms: _398  and  _401
REMARK  156  A    between atoms: _401  and  _402
REMARK  157  A    between atoms: _405  and  _407
REMARK  158  A    between atoms: _407  and  _408
REMARK  159  A    between atoms: _407  and  _410
REMARK  160  A    between atoms: _410  and  _411
REMARK  161  A    between atoms: _414  and  _416
REMARK  162  A    between atoms: _416  and  _417
REMARK  163  A    between atoms: _416  and  _419
REMARK  164  A    between atoms: _419  and  _420
REMARK  165  A    between atoms: _420  and  _421
REMARK  166  A    between atoms: _421  and  _422
REMARK  167  A    between atoms: _431  and  _433
REMARK  168  A    between atoms: _433  and  _434
REMARK  169  A    between atoms: _433  and  _436
REMARK  170  A    between atoms: _436  and  _437
REMARK  171  A    between atoms: _442  and  _444
REMARK  172  A    between atoms: _444  and  _445
REMARK  173  A    between atoms: _444  and  _447
REMARK  174  A    between atoms: _447  and  _448
REMARK  175  A    between atoms: _449  and  _450
REMARK  176  A    between atoms: _459  and  _461
REMARK  177  A    between atoms: _461  and  _462
REMARK  178  A    between atoms: _465  and  _467
REMARK  179  A    between atoms: _467  and  _468
REMARK  180  A    between atoms: _470  and  _472
REMARK  181  A    between atoms: _472  and  _473
REMARK  182  A    between atoms: _472  and  _475
REMARK  183  A    between atoms: _475  and  _476
REMARK  184  A    between atoms: _486  and  _488
REMARK  185  A    between atoms: _488  and  _489
REMARK  186  A    between atoms: _488  and  _491
REMARK  187  A    between atoms: _491  and  _492
REMARK  188  A    between atoms: _493  and  _495
REMARK  189  A    between atoms: _495  and  _496
REMARK  190  A    between atoms: _499  and  _501
REMARK  191  A    between atoms: _501  and  _502
REMARK  192  A    between atoms: _501  and  _504
REMARK  193  A    between atoms: _504  and  _505
REMARK  194  A    between atoms: _508  and  _510
REMARK  195  A    between atoms: _510  and  _511
REMARK  196  A    between atoms: _510  and  _513
REMARK  197  A    between atoms: _513  and  _514
REMARK  198  A    between atoms: _519  and  _520
REMARK  199  A    between atoms: _522  and  _524
REMARK  200  A    between atoms: _524  and  _525
REMARK  201  A    between atoms: _524  and  _527
REMARK  202  A    between atoms: _527  and  _528
REMARK  203  A    between atoms: _530  and  _532
REMARK  204  A    between atoms: _532  and  _533
REMARK  205  A    between atoms: _532  and  _535
REMARK  206  A    between atoms: _535  and  _536
REMARK  207  A    between atoms: _542  and  _544
REMARK  208  A    between atoms: _544  and  _545
REMARK  209  A    between atoms: _544  and  _547
REMARK  210  A    between atoms: _547  and  _548
REMARK  211  A    between atoms: _551  and  _553
REMARK  212  A    between atoms: _553  and  _554
REMARK  213  A    between atoms: _553  and  _556
REMARK  214  A    between atoms: _556  and  _557
REMARK  215  A    between atoms: _559  and  _561
REMARK  216  A    between atoms: _561  and  _562
REMARK  217  A    between atoms: _561  and  _564
REMARK  218  A    between atoms: _564  and  _565
REMARK  219  A    between atoms: _570  and  _572
REMARK  220  A    between atoms: _572  and  _573
REMARK  221  A    between atoms: _572  and  _575
REMARK  222  A    between atoms: _575  and  _576
REMARK  223  A    between atoms: _581  and  _583
REMARK  224  A    between atoms: _583  and  _584
REMARK  225  A    between atoms: _583  and  _586
REMARK  226  A    between atoms: _586  and  _587
REMARK  227  A    between atoms: _590  and  _592
REMARK  228  A    between atoms: _592  and  _593
REMARK  229  A    between atoms: _596  and  _598
REMARK  230  A    between atoms: _598  and  _599
REMARK  231  A    between atoms: _598  and  _601
REMARK  232  A    between atoms: _601  and  _602
REMARK  233  A    between atoms: _607  and  _608
REMARK  234  A    between atoms: _610  and  _612
REMARK  235  A    between atoms: _612  and  _613
REMARK  236  A    between atoms: _612  and  _615
REMARK  237  A    between atoms: _615  and  _616
REMARK  238  A    between atoms: _621  and  _622
REMARK  239  A    between atoms: _624  and  _626
REMARK  240  A    between atoms: _626  and  _627
REMARK  241  A    between atoms: _626  and  _629
REMARK  242  A    between atoms: _632  and  _634
REMARK  243  A    between atoms: _634  and  _635
REMARK  244  A    between atoms: _634  and  _637
REMARK  245  A    between atoms: _637  and  _638
REMARK  246  A    between atoms: _643  and  _645
REMARK  247  A    between atoms: _645  and  _646
REMARK  248  A    between atoms: _649  and  _651
REMARK  249  A    between atoms: _651  and  _652
REMARK  250  A    between atoms: _651  and  _654
REMARK  251  A    between atoms: _654  and  _655
REMARK  252  A    between atoms: _655  and  _656
REMARK  253  A    between atoms: _656  and  _657
REMARK  254  A    between atoms: _666  and  _668
REMARK  255  A    between atoms: _668  and  _669
REMARK  256  A    between atoms: _668  and  _671
REMARK  257  A    between atoms: _671  and  _672
REMARK  258  A    between atoms: _675  and  _677
REMARK  259  A    between atoms: _677  and  _678
REMARK  260  A    between atoms: _677  and  _680
REMARK  261  A    between atoms: _680  and  _681
REMARK  262  A    between atoms: _684  and  _686
REMARK  263  A    between atoms: _686  and  _687
REMARK  264  A    between atoms: _686  and  _689
REMARK  265  A    between atoms: _689  and  _690
REMARK                            x       y       z     vdW  Elec       q    Type
REMARK                         _______ _______ _______ _____ _____    ______ ____
ROOT
ATOM      1  C   LEU A   1     -11.056  23.257  18.661  0.00  0.00    +0.238 C 
ATOM      2  O   LEU A   1     -11.516  22.859  19.744  0.00  0.00    -0.274 OA
ATOM      3  N   HIS A   2      -9.910  23.957  18.569  0.00  0.00    -0.298 N 
ATOM      4  H   HIS A   2      -9.562  24.309  17.654  0.00  0.00    +0.150 HD
ENDROOT
BRANCH   1   5
ATOM      5  CA  LEU A   1     -11.838  22.930  17.386  0.00  0.00    +0.145 C 
BRANCH   5   6
ATOM      6  N   LEU A   1     -12.107  24.084  16.566  0.00  0.00    -0.238 NA
ATOM      7  H   LEU A   1     -11.783  24.069  15.578  0.00  0.00    +0.142 HD
ENDBRANCH   5   6
BRANCH   5   8
ATOM      8  CB  LEU A   1     -11.025  21.861  16.621  0.00  0.00    +0.026 C 
BRANCH   8   9
ATOM      9  CG  LEU A   1     -10.617  20.600  17.372  0.00  0.00    +0.002 C 
ATOM     10  CD2 LEU A   1     -11.865  19.837  17.815  0.00  0.00    +0.000 C 
ATOM     11  CD1 LEU A   1      -9.775  19.685  16.499  0.00  0.00    +0.000 C 
ENDBRANCH   8   9
ENDBRANCH   5   8
ENDBRANCH   1   5
BRANCH   3  12
ATOM     12  CA  HIS A   2      -9.172  24.203  19.813  0.00  0.00    +0.143 C 
BRANCH  12  13
ATOM     13  C   HIS A   2      -9.918  25.188  20.731  0.00  0.00    +0.227 C 
ATOM     14  O   HIS A   2      -9.773  25.094  21.947  0.00  0.00    -0.286 OA
ENDBRANCH  12  13
BRANCH  12  15
ATOM     15  CB  HIS A   2      -7.760  24.751  19.564  0.00  0.00    +0.075 C 
BRANCH  15  16
ATOM     16  CG  HIS A   2      -6.966  23.849  18.667  0.00  0.00    +0.082 A 
ATOM     17  ND1 HIS A   2      -6.895  22.477  18.877  0.00  0.00    -0.227 NA
ATOM     18  CE1 HIS A   2      -6.119  21.953  17.939  0.00  0.00    +0.199 A 
ATOM     19  NE2 HIS A   2      -5.699  22.938  17.148  0.00  0.00    -0.221 NA
ATOM     20  CD2 HIS A   2      -6.208  24.133  17.578  0.00  0.00    +0.115 A 
ENDBRANCH  15  16
ENDBRANCH  12  15
ENDBRANCH   3  12
TORSDOF 8
REMARK  Name = ../refined-set-2016/1b2h/1b2h_pocket.pdb
REMARK  265 active torsions:
REMARK  status: ('A' for Active; 'I' for Inactive)
REMARK    1  A    between atoms: _1  and  _3
REMARK    2  A    between atoms: _3  and  _4
REMARK    3  A    between atoms: _3  and  _6
REMARK    4  A    between atoms: _6  and  _7
REMARK    5  A    between atoms: _12  and  _14
REMARK    6  A    between atoms: _14  and  _15
REMARK    7  A    between atoms: _17  and  _19
REMARK    8  A    between atoms: _19  and  _20
REMARK    9  A    between atoms: _19  and  _22
REMARK   10  A    between atoms: _22  and  _23
REMARK   11  A    between atoms: _25  and  _27
REMARK   12  A    between atoms: _27  and  _28
REMARK   13  A    between atoms: _27  and  _30
REMARK   14  A    between atoms: _30  and  _31
REMARK   15  A    between atoms: _31  and  _32
REMARK   16  A    between atoms: _37  and  _39
REMARK   17  A    between atoms: _39  and  _40
REMARK   18  A    between atoms: _39  and  _42
REMARK   19  A    between atoms: _42  and  _43
REMARK   20  A    between atoms: _46  and  _48
REMARK   21  A    between atoms: _48  and  _49
REMARK   22  A    between atoms: _48  and  _51
REMARK   23  A    between atoms: _52  and  _53
REMARK   24  A    between atoms: _56  and  _58
REMARK   25  A    between atoms: _58  and  _59
REMARK   26  A    between atoms: _61  and  _63
REMARK   27  A    between atoms: _63  and  _64
REMARK   28  A    between atoms: _63  and  _66
REMARK   29  A    between atoms: _70  and  _71
REMARK   30  A    between atoms: _76  and  _78
REMARK   31  A    between atoms: _78  and  _79
REMARK   32  A    between atoms: _78  and  _81
REMARK   33  A    between atoms: _81  and  _82
REMARK   34  A    between atoms: _82  and  _83
REMARK   35  A    between atoms: _86  and  _88
REMARK   36  A    between atoms: _88  and  _89
REMARK   37  A    between atoms: _88  and  _91
REMARK   38  A    between atoms: _91  and  _92
REMARK   39  A    between atoms: _94  and  _96
REMARK   40  A    between atoms: _96  and  _97
REMARK   41  A    between atoms: _96  and  _99
REMARK   42  A    between atoms: _99  and  _100
REMARK   43  A    between atoms: _105  and  _107
REMARK   44  A    between atoms: _107  and  _108
REMARK   45  A    between atoms: _107  and  _110
REMARK   46  A    between atoms: _110  and  _111
REMARK   47  A    between atoms: _111  and  _112
REMARK   48  A    between atoms: _112  and  _113
REMARK   49  A    between atoms: _123  and  _124
REMARK   50  A    between atoms: _129  and  _131
REMARK   51  A    between atoms: _131  and  _132
REMARK   52  A    between atoms: _131  and  _134
REMARK   53  A    between atoms: _134  and  _135
REMARK   54  A    between atoms: _140  and  _141
REMARK   55  A    between atoms: _143  and  _145
REMARK   56  A    between atoms: _145  and  _146
REMARK   57  A    between atoms: _145  and  _148
REMARK   58  A    between atoms: _148  and  _149
REMARK   59  A    between atoms: _154  and  _155
REMARK   60  A    between atoms: _157  and  _159
REMARK   61  A    between atoms: _159  and  _160
REMARK   62  A    between atoms: _159  and  _162
REMARK   63  A    between atoms: _165  and  _167
REMARK   64  A    between atoms: _167  and  _168
REMARK   65  A    between atoms: _167  and  _170
REMARK   66  A    between atoms: _170  and  _171
REMARK   67  A    between atoms: _177  and  _178
REMARK   68  A    between atoms: _183  and  _185
REMARK   69  A    between atoms: _185  and  _186
REMARK   70  A    between atoms: _185  and  _188
REMARK   71  A    between atoms: _188  and  _189
REMARK   72  A    between atoms: _191  and  _193
REMARK   73  A    between atoms: _193  and  _194
REMARK   74  A    between atoms: _193  and  _196
REMARK   75  A    between atoms: _196  and  _197
REMARK   76  A    between atoms: _197  and  _198
REMARK   77  A    between atoms: _201  and  _203
REMARK   78  A    between atoms: _203  and  _204
REMARK   79  A    between atoms: _203  and  _206
REMARK   80  A    between atoms: _206  and  _207
REMARK   81  A    between atoms: _212  and  _213
REMARK   82  A    between atoms: _215  and  _217
REMARK   83  A    between atoms: _217  and  _218
REMARK   84  A    between atoms: _217  and  _220
REMARK   85  A    between atoms: _220  and  _221
REMARK   86  A    between atoms: _226  and  _228
REMARK   87  A    between atoms: _228  and  _229
REMARK   88  A    between atoms: _228  and  _231
REMARK   89  A    between atoms: _231  and  _232
REMARK   90  A    between atoms: _237  and  _239
REMARK   91  A    between atoms: _239  and  _240
REMARK   92  A    between atoms: _239  and  _242
REMARK   93  A    between atoms: _242  and  _243
REMARK   94  A    between atoms: _243  and  _244
REMARK   95  A    between atoms: _246  and  _248
REMARK   96  A    between atoms: _248  and  _249
REMARK   97  A    between atoms: _248  and  _251
REMARK   98  A    between atoms: _251  and  _252
REMARK   99  A    between atoms: _257  and  _258
REMARK  100  A    between atoms: _260  and  _262
REMARK  101  A    between atoms: _262  and  _263
REMARK  102  A    between atoms: _262  and  _265
REMARK  103  A    between atoms: _265  and  _266
REMARK  104  A    between atoms: _269  and  _271
REMARK  105  A    between atoms: _271  and  _272
REMARK  106  A    between atoms: _271  and  _274
REMARK  107  A    between atoms: _274  and  _275
REMARK  108  A    between atoms: _275  and  _492
REMARK  109  A    between atoms: _276  and  _278
REMARK  110  A    between atoms: _278  and  _279
REMARK  111  A    between atoms: _278  and  _281
REMARK  112  A    between atoms: _281  and  _282
REMARK  113  A    between atoms: _285  and  _287
REMARK  114  A    between atoms: _287  and  _288
REMARK  115  A    between atoms: _287  and  _290
REMARK  116  A    between atoms: _290  and  _291
REMARK  117  A    between atoms: _296  and  _297
REMARK  118  A    between atoms: _299  and  _301
REMARK  119  A    between atoms: _301  and  _302
REMARK  120  A    between atoms: _301  and  _304
REMARK  121  A    between atoms: _304  and  _305
REMARK  122  A    between atoms: _310  and  _311
REMARK  123  A    between atoms: _313  and  _315
REMARK  124  A    between atoms: _315  and  _316
REMARK  125  A    between atoms: _315  and  _318
REMARK  126  A    between atoms: _318  and  _319
REMARK  127  A    between atoms: _319  and  _320
REMARK  128  A    between atoms: _323  and  _325
REMARK  129  A    between atoms: _325  and  _326
REMARK  130  A    between atoms: _325  and  _328
REMARK  131  A    between atoms: _328  and  _329
REMARK  132  A    between atoms: _334  and  _335
REMARK  133  A    between atoms: _337  and  _339
REMARK  134  A    between atoms: _339  and  _340
REMARK  135  A    between atoms: _339  and  _342
REMARK  136  A    between atoms: _342  and  _343
REMARK  137  A    between atoms: _348  and  _350
REMARK  138  A    between atoms: _350  and  _351
REMARK  139  A    between atoms: _350  and  _353
REMARK  140  A    between atoms: _353  and  _354
REMARK  141  A    between atoms: _357  and  _359
REMARK  142  A    between atoms: _359  and  _360
REMARK  143  A    between atoms: _359  and  _362
REMARK  144  A    between atoms: _362  and  _363
REMARK  145  A    between atoms: _368  and  _370
REMARK  146  A    between atoms: _370  and  _371
REMARK  147  A    between atoms: _370  and  _373
REMARK  148  A    between atoms: _373  and  _374
REMARK  149  A    between atoms: _384  and  _386
REMARK  150  A    between atoms: _386  and  _387
REMARK  151  A    between atoms: _386  and  _389
REMARK  152  A    between atoms: _389  and  _390
REMARK  153  A    between atoms: _396  and  _398
REMARK  154  A    between atoms: _398  and  _399
REMARK  155  A    between atoms: _398  and  _401
REMARK  156  A    between atoms: _401  and  _402
REMARK  157  A    between atoms: _405  and  _407
REMARK  158  A    between atoms: _407  and  _408
REMARK  159  A    between atoms: _407  and  _410
REMARK  160  A    between atoms: _410  and  _411
REMARK  161  A    between atoms: _414  and  _416
REMARK  162  A    between atoms: _416  and  _417
REMARK  163  A    between atoms: _416  and  _419
REMARK  164  A    between atoms: _419  and  _420
REMARK  165  A    between atoms: _420  and  _421
REMARK  166  A    between atoms: _421  and  _422
REMARK  167  A    between atoms: _431  and  _433
REMARK  168  A    between atoms: _433  and  _434
REMARK  169  A    between atoms: _433  and  _436
REMARK  170  A    between atoms: _436  and  _437
REMARK  171  A    between atoms: _442  and  _444
REMARK  172  A    between atoms: _444  and  _445
REMARK  173  A    between atoms: _444  and  _447
REMARK  174  A    between atoms: _447  and  _448
REMARK  175  A    between atoms: _449  and  _450
REMARK  176  A    between atoms: _459  and  _461
REMARK  177  A    between atoms: _461  and  _462
REMARK  178  A    between atoms: _465  and  _467
REMARK  179  A    between atoms: _467  and  _468
REMARK  180  A    between atoms: _470  and  _472
REMARK  181  A    between atoms: _472  and  _473
REMARK  182  A    between atoms: _472  and  _475
REMARK  183  A    between atoms: _475  and  _476
REMARK  184  A    between atoms: _486  and  _488
REMARK  185  A    between atoms: _488  and  _489
REMARK  186  A    between atoms: _488  and  _491
REMARK  187  A    between atoms: _491  and  _492
REMARK  188  A    between atoms: _493  and  _495
REMARK  189  A    between atoms: _495  and  _496
REMARK  190  A    between atoms: _499  and  _501
REMARK  191  A    between atoms: _501  and  _502
REMARK  192  A    between atoms: _501  and  _504
REMARK  193  A    between atoms: _504  and  _505
REMARK  194  A    between atoms: _508  and  _510
REMARK  195  A    between atoms: _510  and  _511
REMARK  196  A    between atoms: _510  and  _513
REMARK  197  A    between atoms: _513  and  _514
REMARK  198  A    between atoms: _519  and  _520
REMARK  199  A    between atoms: _522  and  _524
REMARK  200  A    between atoms: _524  and  _525
REMARK  201  A    between atoms: _524  and  _527
REMARK  202  A    between atoms: _527  and  _528
REMARK  203  A    between atoms: _530  and  _532
REMARK  204  A    between atoms: _532  and  _533
REMARK  205  A    between atoms: _532  and  _535
REMARK  206  A    between atoms: _535  and  _536
REMARK  207  A    between atoms: _542  and  _544
REMARK  208  A    between atoms: _544  and  _545
REMARK  209  A    between atoms: _544  and  _547
REMARK  210  A    between atoms: _547  and  _548
REMARK  211  A    between atoms: _551  and  _553
REMARK  212  A    between atoms: _553  and  _554
REMARK  213  A    between atoms: _553  and  _556
REMARK  214  A    between atoms: _556  and  _557
REMARK  215  A    between atoms: _559  and  _561
REMARK  216  A    between atoms: _561  and  _562
REMARK  217  A    between atoms: _561  and  _564
REMARK  218  A    between atoms: _564  and  _565
REMARK  219  A    between atoms: _570  and  _572
REMARK  220  A    between atoms: _572  and  _573
REMARK  221  A    between atoms: _572  and  _575
REMARK  222  A    between atoms: _575  and  _576
REMARK  223  A    between atoms: _581  and  _583
REMARK  224  A    between atoms: _583  and  _584
REMARK  225  A    between atoms: _583  and  _586
REMARK  226  A    between atoms: _586  and  _587
REMARK  227  A    between atoms: _590  and  _592
REMARK  228  A    between atoms: _592  and  _593
REMARK  229  A    between atoms: _596  and  _598
REMARK  230  A    between atoms: _598  and  _599
REMARK  231  A    between atoms: _598  and  _601
REMARK  232  A    between atoms: _601  and  _602
REMARK  233  A    between atoms: _607  and  _608
REMARK  234  A    between atoms: _610  and  _612
REMARK  235  A    between atoms: _612  and  _613
REMARK  236  A    between atoms: _612  and  _615
REMARK  237  A    between atoms: _615  and  _616
REMARK  238  A    between atoms: _621  and  _622
REMARK  239  A    between atoms: _624  and  _626
REMARK  240  A    between atoms: _626  and  _627
REMARK  241  A    between atoms: _626  and  _629
REMARK  242  A    between atoms: _632  and  _634
REMARK  243  A    between atoms: _634  and  _635
REMARK  244  A    between atoms: _634  and  _637
REMARK  245  A    between atoms: _637  and  _638
REMARK  246  A    between atoms: _643  and  _645
REMARK  247  A    between atoms: _645  and  _646
REMARK  248  A    between atoms: _649  and  _651
REMARK  249  A    between atoms: _651  and  _652
REMARK  250  A    between atoms: _651  and  _654
REMARK  251  A    between atoms: _654  and  _655
REMARK  252  A    between atoms: _655  and  _656
REMARK  253  A    between atoms: _656  and  _657
REMARK  254  A    between atoms: _666  and  _668
REMARK  255  A    between atoms: _668  and  _669
REMARK  256  A    between atoms: _668  and  _671
REMARK  257  A    between atoms: _671  and  _672
REMARK  258  A    between atoms: _675  and  _677
REMARK  259  A    between atoms: _677  and  _678
REMARK  260  A    between atoms: _677  and  _680
REMARK  261  A    between atoms: _680  and  _681
REMARK  262  A    between atoms: _684  and  _686
REMARK  263  A    between atoms: _686  and  _687
REMARK  264  A    between atoms: _686  and  _689
REMARK  265  A    between atoms: _689  and  _690
REMARK                            x       y       z     vdW  Elec       q    Type
REMARK                         _______ _______ _______ _____ _____    ______ ____
ROOT
ATOM      1  CG  TRP A   1       0.563  27.399  12.974  0.00  0.00    -0.002 A 
ATOM      2  CD2 TRP A   1       0.602  26.266  13.848  0.00  0.00    +0.013 A 
ATOM      3  CE3 TRP A   1      -0.063  25.956  15.045  0.00  0.00    +0.001 A 
ATOM      4  CZ3 TRP A   1       0.228  24.748  15.670  0.00  0.00    +0.000 A 
ATOM      5  CH2 TRP A   1       1.173  23.842  15.127  0.00  0.00    +0.001 A 
ATOM      6  CZ2 TRP A   1       1.834  24.141  13.962  0.00  0.00    +0.017 A 
ATOM      7  CE2 TRP A   1       1.556  25.352  13.341  0.00  0.00    +0.056 A 
ATOM      8  NE1 TRP A   1       2.076  25.900  12.190  0.00  0.00    -0.352 N 
ATOM      9  HE1 TRP A   1       2.801  25.465  11.585  0.00  0.00    +0.166 HD
ATOM     10  CD1 TRP A   1       1.471  27.128  11.973  0.00  0.00    +0.068 A 
ENDROOT
BRANCH   1  11
ATOM     11  CB  TRP A   1      -0.313  28.610  13.042  0.00  0.00    +0.053 C 
BRANCH  11  12
ATOM     12  CA  TRP A   1      -0.234  29.549  14.259  0.00  0.00    +0.137 C 
BRANCH  12  13
ATOM     13  N   TRP A   1      -1.197  30.630  14.176  0.00  0.00    -0.239 NA
ATOM     14  H   TRP A   1      -1.976  30.527  13.495  0.00  0.00    +0.142 HD
ENDBRANCH  12  13
BRANCH  12  15
ATOM     15  C   TRP A   1       1.221  29.976  14.384  0.00  0.00    +0.224 C 
ATOM     16  O   TRP A   1       1.874  29.525  15.316  0.00  0.00    -0.287 OA
ENDBRANCH  12  15
ENDBRANCH  11  12
ENDBRANCH   1  11
TORSDOF 4
REMARK  Name = ../refined-set-2016/1b2h/1b2h_pocket.pdb
REMARK  265 active torsions:
REMARK  status: ('A' for Active; 'I' for Inactive)
REMARK    1  A    between atoms: _1  and  _3
REMARK    2  A    between atoms: _3  and  _4
REMARK    3  A    between atoms: _3  and  _6
REMARK    4  A    between atoms: _6  and  _7
REMARK    5  A    between atoms: _12  and  _14
REMARK    6  A    between atoms: _14  and  _15
REMARK    7  A    between atoms: _17  and  _19
REMARK    8  A    between atoms: _19  and  _20
REMARK    9  A    between atoms: _19  and  _22
REMARK   10  A    between atoms: _22  and  _23
REMARK   11  A    between atoms: _25  and  _27
REMARK   12  A    between atoms: _27  and  _28
REMARK   13  A    between atoms: _27  and  _30
REMARK   14  A    between atoms: _30  and  _31
REMARK   15  A    between atoms: _31  and  _32
REMARK   16  A    between atoms: _37  and  _39
REMARK   17  A    between atoms: _39  and  _40
REMARK   18  A    between atoms: _39  and  _42
REMARK   19  A    between atoms: _42  and  _43
REMARK   20  A    between atoms: _46  and  _48
REMARK   21  A    between atoms: _48  and  _49
REMARK   22  A    between atoms: _48  and  _51
REMARK   23  A    between atoms: _52  and  _53
REMARK   24  A    between atoms: _56  and  _58
REMARK   25  A    between atoms: _58  and  _59
REMARK   26  A    between atoms: _61  and  _63
REMARK   27  A    between atoms: _63  and  _64
REMARK   28  A    between atoms: _63  and  _66
REMARK   29  A    between atoms: _70  and  _71
REMARK   30  A    between atoms: _76  and  _78
REMARK   31  A    between atoms: _78  and  _79
REMARK   32  A    between atoms: _78  and  _81
REMARK   33  A    between atoms: _81  and  _82
REMARK   34  A    between atoms: _82  and  _83
REMARK   35  A    between atoms: _86  and  _88
REMARK   36  A    between atoms: _88  and  _89
REMARK   37  A    between atoms: _88  and  _91
REMARK   38  A    between atoms: _91  and  _92
REMARK   39  A    between atoms: _94  and  _96
REMARK   40  A    between atoms: _96  and  _97
REMARK   41  A    between atoms: _96  and  _99
REMARK   42  A    between atoms: _99  and  _100
REMARK   43  A    between atoms: _105  and  _107
REMARK   44  A    between atoms: _107  and  _108
REMARK   45  A    between atoms: _107  and  _110
REMARK   46  A    between atoms: _110  and  _111
REMARK   47  A    between atoms: _111  and  _112
REMARK   48  A    between atoms: _112  and  _113
REMARK   49  A    between atoms: _123  and  _124
REMARK   50  A    between atoms: _129  and  _131
REMARK   51  A    between atoms: _131  and  _132
REMARK   52  A    between atoms: _131  and  _134
REMARK   53  A    between atoms: _134  and  _135
REMARK   54  A    between atoms: _140  and  _141
REMARK   55  A    between atoms: _143  and  _145
REMARK   56  A    between atoms: _145  and  _146
REMARK   57  A    between atoms: _145  and  _148
REMARK   58  A    between atoms: _148  and  _149
REMARK   59  A    between atoms: _154  and  _155
REMARK   60  A    between atoms: _157  and  _159
REMARK   61  A    between atoms: _159  and  _160
REMARK   62  A    between atoms: _159  and  _162
REMARK   63  A    between atoms: _165  and  _167
REMARK   64  A    between atoms: _167  and  _168
REMARK   65  A    between atoms: _167  and  _170
REMARK   66  A    between atoms: _170  and  _171
REMARK   67  A    between atoms: _177  and  _178
REMARK   68  A    between atoms: _183  and  _185
REMARK   69  A    between atoms: _185  and  _186
REMARK   70  A    between atoms: _185  and  _188
REMARK   71  A    between atoms: _188  and  _189
REMARK   72  A    between atoms: _191  and  _193
REMARK   73  A    between atoms: _193  and  _194
REMARK   74  A    between atoms: _193  and  _196
REMARK   75  A    between atoms: _196  and  _197
REMARK   76  A    between atoms: _197  and  _198
REMARK   77  A    between atoms: _201  and  _203
REMARK   78  A    between atoms: _203  and  _204
REMARK   79  A    between atoms: _203  and  _206
REMARK   80  A    between atoms: _206  and  _207
REMARK   81  A    between atoms: _212  and  _213
REMARK   82  A    between atoms: _215  and  _217
REMARK   83  A    between atoms: _217  and  _218
REMARK   84  A    between atoms: _217  and  _220
REMARK   85  A    between atoms: _220  and  _221
REMARK   86  A    between atoms: _226  and  _228
REMARK   87  A    between atoms: _228  and  _229
REMARK   88  A    between atoms: _228  and  _231
REMARK   89  A    between atoms: _231  and  _232
REMARK   90  A    between atoms: _237  and  _239
REMARK   91  A    between atoms: _239  and  _240
REMARK   92  A    between atoms: _239  and  _242
REMARK   93  A    between atoms: _242  and  _243
REMARK   94  A    between atoms: _243  and  _244
REMARK   95  A    between atoms: _246  and  _248
REMARK   96  A    between atoms: _248  and  _249
REMARK   97  A    between atoms: _248  and  _251
REMARK   98  A    between atoms: _251  and  _252
REMARK   99  A    between atoms: _257  and  _258
REMARK  100  A    between atoms: _260  and  _262
REMARK  101  A    between atoms: _262  and  _263
REMARK  102  A    between atoms: _262  and  _265
REMARK  103  A    between atoms: _265  and  _266
REMARK  104  A    between atoms: _269  and  _271
REMARK  105  A    between atoms: _271  and  _272
REMARK  106  A    between atoms: _271  and  _274
REMARK  107  A    between atoms: _274  and  _275
REMARK  108  A    between atoms: _275  and  _492
REMARK  109  A    between atoms: _276  and  _278
REMARK  110  A    between atoms: _278  and  _279
REMARK  111  A    between atoms: _278  and  _281
REMARK  112  A    between atoms: _281  and  _282
REMARK  113  A    between atoms: _285  and  _287
REMARK  114  A    between atoms: _287  and  _288
REMARK  115  A    between atoms: _287  and  _290
REMARK  116  A    between atoms: _290  and  _291
REMARK  117  A    between atoms: _296  and  _297
REMARK  118  A    between atoms: _299  and  _301
REMARK  119  A    between atoms: _301  and  _302
REMARK  120  A    between atoms: _301  and  _304
REMARK  121  A    between atoms: _304  and  _305
REMARK  122  A    between atoms: _310  and  _311
REMARK  123  A    between atoms: _313  and  _315
REMARK  124  A    between atoms: _315  and  _316
REMARK  125  A    between atoms: _315  and  _318
REMARK  126  A    between atoms: _318  and  _319
REMARK  127  A    between atoms: _319  and  _320
REMARK  128  A    between atoms: _323  and  _325
REMARK  129  A    between atoms: _325  and  _326
REMARK  130  A    between atoms: _325  and  _328
REMARK  131  A    between atoms: _328  and  _329
REMARK  132  A    between atoms: _334  and  _335
REMARK  133  A    between atoms: _337  and  _339
REMARK  134  A    between atoms: _339  and  _340
REMARK  135  A    between atoms: _339  and  _342
REMARK  136  A    between atoms: _342  and  _343
REMARK  137  A    between atoms: _348  and  _350
REMARK  138  A    between atoms: _350  and  _351
REMARK  139  A    between atoms: _350  and  _353
REMARK  140  A    between atoms: _353  and  _354
REMARK  141  A    between atoms: _357  and  _359
REMARK  142  A    between atoms: _359  and  _360
REMARK  143  A    between atoms: _359  and  _362
REMARK  144  A    between atoms: _362  and  _363
REMARK  145  A    between atoms: _368  and  _370
REMARK  146  A    between atoms: _370  and  _371
REMARK  147  A    between atoms: _370  and  _373
REMARK  148  A    between atoms: _373  and  _374
REMARK  149  A    between atoms: _384  and  _386
REMARK  150  A    between atoms: _386  and  _387
REMARK  151  A    between atoms: _386  and  _389
REMARK  152  A    between atoms: _389  and  _390
REMARK  153  A    between atoms: _396  and  _398
REMARK  154  A    between atoms: _398  and  _399
REMARK  155  A    between atoms: _398  and  _401
REMARK  156  A    between atoms: _401  and  _402
REMARK  157  A    between atoms: _405  and  _407
REMARK  158  A    between atoms: _407  and  _408
REMARK  159  A    between atoms: _407  and  _410
REMARK  160  A    between atoms: _410  and  _411
REMARK  161  A    between atoms: _414  and  _416
REMARK  162  A    between atoms: _416  and  _417
REMARK  163  A    between atoms: _416  and  _419
REMARK  164  A    between atoms: _419  and  _420
REMARK  165  A    between atoms: _420  and  _421
REMARK  166  A    between atoms: _421  and  _422
REMARK  167  A    between atoms: _431  and  _433
REMARK  168  A    between atoms: _433  and  _434
REMARK  169  A    between atoms: _433  and  _436
REMARK  170  A    between atoms: _436  and  _437
REMARK  171  A    between atoms: _442  and  _444
REMARK  172  A    between atoms: _444  and  _445
REMARK  173  A    between atoms: _444  and  _447
REMARK  174  A    between atoms: _447  and  _448
REMARK  175  A    between atoms: _449  and  _450
REMARK  176  A    between atoms: _459  and  _461
REMARK  177  A    between atoms: _461  and  _462
REMARK  178  A    between atoms: _465  and  _467
REMARK  179  A    between atoms: _467  and  _468
REMARK  180  A    between atoms: _470  and  _472
REMARK  181  A    between atoms: _472  and  _473
REMARK  182  A    between atoms: _472  and  _475
REMARK  183  A    between atoms: _475  and  _476
REMARK  184  A    between atoms: _486  and  _488
REMARK  185  A    between atoms: _488  and  _489
REMARK  186  A    between atoms: _488  and  _491
REMARK  187  A    between atoms: _491  and  _492
REMARK  188  A    between atoms: _493  and  _495
REMARK  189  A    between atoms: _495  and  _496
REMARK  190  A    between atoms: _499  and  _501
REMARK  191  A    between atoms: _501  and  _502
REMARK  192  A    between atoms: _501  and  _504
REMARK  193  A    between atoms: _504  and  _505
REMARK  194  A    between atoms: _508  and  _510
REMARK  195  A    between atoms: _510  and  _511
REMARK  196  A    between atoms: _510  and  _513
REMARK  197  A    between atoms: _513  and  _514
REMARK  198  A    between atoms: _519  and  _520
REMARK  199  A    between atoms: _522  and  _524
REMARK  200  A    between atoms: _524  and  _525
REMARK  201  A    between atoms: _524  and  _527
REMARK  202  A    between atoms: _527  and  _528
REMARK  203  A    between atoms: _530  and  _532
REMARK  204  A    between atoms: _532  and  _533
REMARK  205  A    between atoms: _532  and  _535
REMARK  206  A    between atoms: _535  and  _536
REMARK  207  A    between atoms: _542  and  _544
REMARK  208  A    between atoms: _544  and  _545
REMARK  209  A    between atoms: _544  and  _547
REMARK  210  A    between atoms: _547  and  _548
REMARK  211  A    between atoms: _551  and  _553
REMARK  212  A    between atoms: _553  and  _554
REMARK  213  A    between atoms: _553  and  _556
REMARK  214  A    between atoms: _556  and  _557
REMARK  215  A    between atoms: _559  and  _561
REMARK  216  A    between atoms: _561  and  _562
REMARK  217  A    between atoms: _561  and  _564
REMARK  218  A    between atoms: _564  and  _565
REMARK  219  A    between atoms: _570  and  _572
REMARK  220  A    between atoms: _572  and  _573
REMARK  221  A    between atoms: _572  and  _575
REMARK  222  A    between atoms: _575  and  _576
REMARK  223  A    between atoms: _581  and  _583
REMARK  224  A    between atoms: _583  and  _584
REMARK  225  A    between atoms: _583  and  _586
REMARK  226  A    between atoms: _586  and  _587
REMARK  227  A    between atoms: _590  and  _592
REMARK  228  A    between atoms: _592  and  _593
REMARK  229  A    between atoms: _596  and  _598
REMARK  230  A    between atoms: _598  and  _599
REMARK  231  A    between atoms: _598  and  _601
REMARK  232  A    between atoms: _601  and  _602
REMARK  233  A    between atoms: _607  and  _608
REMARK  234  A    between atoms: _610  and  _612
REMARK  235  A    between atoms: _612  and  _613
REMARK  236  A    between atoms: _612  and  _615
REMARK  237  A    between atoms: _615  and  _616
REMARK  238  A    between atoms: _621  and  _622
REMARK  239  A    between atoms: _624  and  _626
REMARK  240  A    between atoms: _626  and  _627
REMARK  241  A    between atoms: _626  and  _629
REMARK  242  A    between atoms: _632  and  _634
REMARK  243  A    between atoms: _634  and  _635
REMARK  244  A    between atoms: _634  and  _637
REMARK  245  A    between atoms: _637  and  _638
REMARK  246  A    between atoms: _643  and  _645
REMARK  247  A    between atoms: _645  and  _646
REMARK  248  A    between atoms: _649  and  _651
REMARK  249  A    between atoms: _651  and  _652
REMARK  250  A    between atoms: _651  and  _654
REMARK  251  A    between atoms: _654  and  _655
REMARK  252  A    between atoms: _655  and  _656
REMARK  253  A    between atoms: _656  and  _657
REMARK  254  A    between atoms: _666  and  _668
REMARK  255  A    between atoms: _668  and  _669
REMARK  256  A    between atoms: _668  and  _671
REMARK  257  A    between atoms: _671  and  _672
REMARK  258  A    between atoms: _675  and  _677
REMARK  259  A    between atoms: _677  and  _678
REMARK  260  A    between atoms: _677  and  _680
REMARK  261  A    between atoms: _680  and  _681
REMARK  262  A    between atoms: _684  and  _686
REMARK  263  A    between atoms: _686  and  _687
REMARK  264  A    between atoms: _686  and  _689
REMARK  265  A    between atoms: _689  and  _690
REMARK                            x       y       z     vdW  Elec       q    Type
REMARK                         _______ _______ _______ _____ _____    ______ ____
ROOT
ATOM      1  CA  LEU A   2       4.722  28.700  18.159  0.00  0.00    +0.149 C 
ENDROOT
BRANCH   1   4
ATOM      2  C   PHE A   1       2.890  30.016  19.070  0.00  0.00    +0.239 C 
ATOM      3  O   PHE A   1       3.276  29.763  20.230  0.00  0.00    -0.274 OA
ATOM      4  N   LEU A   2       3.505  29.500  18.001  0.00  0.00    -0.297 N 
ATOM      5  H   LEU A   2       3.117  29.668  17.051  0.00  0.00    +0.150 HD
BRANCH   2   6
ATOM      6  CA  PHE A   1       1.645  30.847  18.787  0.00  0.00    +0.149 C 
BRANCH   6   7
ATOM      7  N   PHE A   1       1.849  31.798  17.685  0.00  0.00    -0.238 NA
ATOM      8  H   PHE A   1       1.209  31.754  16.866  0.00  0.00    +0.142 HD
ENDBRANCH   6   7
BRANCH   6   9
ATOM      9  CB  PHE A   1       0.480  29.944  18.392  0.00  0.00    +0.053 C 
BRANCH   9  10
ATOM     10  CG  PHE A   1       0.151  28.745  19.219  0.00  0.00    -0.020 A 
ATOM     11  CD2 PHE A   1      -0.376  28.888  20.484  0.00  0.00    -0.004 A 
ATOM     12  CE2 PHE A   1      -0.712  27.772  21.249  0.00  0.00    -0.000 A 
ATOM     13  CZ  PHE A   1      -0.519  26.511  20.720  0.00  0.00    -0.000 A 
ATOM     14  CE1 PHE A   1       0.023  26.330  19.452  0.00  0.00    -0.000 A 
ATOM     15  CD1 PHE A   1       0.344  27.472  18.704  0.00  0.00    -0.004 A 
ENDBRANCH   9  10
ENDBRANCH   6   9
ENDBRANCH   2   6
ENDBRANCH   1   4
BRANCH   1  16
ATOM     16  C   LEU A   2       5.840  29.536  18.785  0.00  0.00    +0.241 C 
ATOM     17  O   LEU A   2       6.570  29.047  19.655  0.00  0.00    -0.273 OA
ATOM     18  N   ASP A   3       5.999  30.769  18.305  0.00  0.00    -0.298 N 
ATOM     19  H   ASP A   3       5.370  31.102  17.547  0.00  0.00    +0.150 HD
BRANCH  18  20
ATOM     20  CA  ASP A   3       7.031  31.662  18.815  0.00  0.00    +0.148 C 
BRANCH  20  21
ATOM     21  C   ASP A   3       6.786  32.049  20.273  0.00  0.00    +0.227 C 
ATOM     22  O   ASP A   3       7.732  32.066  21.069  0.00  0.00    -0.286 OA
ENDBRANCH  20  21
BRANCH  20  23
ATOM     23  CB  ASP A   3       7.090  32.920  17.957  0.00  0.00    +0.142 C 
BRANCH  23  24
ATOM     24  CG  ASP A   3       8.239  33.826  18.362  0.00  0.00    +0.367 C 
ATOM     25  OD2 ASP A   3       7.895  34.942  18.789  0.00  0.00    -0.246 OA
ATOM     26  OD1 ASP A   3       9.402  33.413  18.259  0.00  0.00    -0.246 OA
ENDBRANCH  23  24
ENDBRANCH  20  23
ENDBRANCH  18  20
ENDBRANCH   1  16
BRANCH   1  27
ATOM     27  CB  LEU A   2       5.160  28.081  16.823  0.00  0.00    +0.029 C 
BRANCH  27  28
ATOM     28  CG  LEU A   2       4.140  27.138  16.158  0.00  0.00    +0.002 C 
ATOM     29  CD2 LEU A   2       3.650  26.041  17.126  0.00  0.00    +0.000 C 
ATOM     30  CD1 LEU A   2       4.704  26.411  14.949  0.00  0.00    +0.000 C 
ENDBRANCH  27  28
ENDBRANCH   1  27
TORSDOF 12
REMARK  Name = ../refined-set-2016/1b2h/1b2h_pocket.pdb
REMARK  265 active torsions:
REMARK  status: ('A' for Active; 'I' for Inactive)
REMARK    1  A    between atoms: _1  and  _3
REMARK    2  A    between atoms: _3  and  _4
REMARK    3  A    between atoms: _3  and  _6
REMARK    4  A    between atoms: _6  and  _7
REMARK    5  A    between atoms: _12  and  _14
REMARK    6  A    between atoms: _14  and  _15
REMARK    7  A    between atoms: _17  and  _19
REMARK    8  A    between atoms: _19  and  _20
REMARK    9  A    between atoms: _19  and  _22
REMARK   10  A    between atoms: _22  and  _23
REMARK   11  A    between atoms: _25  and  _27
REMARK   12  A    between atoms: _27  and  _28
REMARK   13  A    between atoms: _27  and  _30
REMARK   14  A    between atoms: _30  and  _31
REMARK   15  A    between atoms: _31  and  _32
REMARK   16  A    between atoms: _37  and  _39
REMARK   17  A    between atoms: _39  and  _40
REMARK   18  A    between atoms: _39  and  _42
REMARK   19  A    between atoms: _42  and  _43
REMARK   20  A    between atoms: _46  and  _48
REMARK   21  A    between atoms: _48  and  _49
REMARK   22  A    between atoms: _48  and  _51
REMARK   23  A    between atoms: _52  and  _53
REMARK   24  A    between atoms: _56  and  _58
REMARK   25  A    between atoms: _58  and  _59
REMARK   26  A    between atoms: _61  and  _63
REMARK   27  A    between atoms: _63  and  _64
REMARK   28  A    between atoms: _63  and  _66
REMARK   29  A    between atoms: _70  and  _71
REMARK   30  A    between atoms: _76  and  _78
REMARK   31  A    between atoms: _78  and  _79
REMARK   32  A    between atoms: _78  and  _81
REMARK   33  A    between atoms: _81  and  _82
REMARK   34  A    between atoms: _82  and  _83
REMARK   35  A    between atoms: _86  and  _88
REMARK   36  A    between atoms: _88  and  _89
REMARK   37  A    between atoms: _88  and  _91
REMARK   38  A    between atoms: _91  and  _92
REMARK   39  A    between atoms: _94  and  _96
REMARK   40  A    between atoms: _96  and  _97
REMARK   41  A    between atoms: _96  and  _99
REMARK   42  A    between atoms: _99  and  _100
REMARK   43  A    between atoms: _105  and  _107
REMARK   44  A    between atoms: _107  and  _108
REMARK   45  A    between atoms: _107  and  _110
REMARK   46  A    between atoms: _110  and  _111
REMARK   47  A    between atoms: _111  and  _112
REMARK   48  A    between atoms: _112  and  _113
REMARK   49  A    between atoms: _123  and  _124
REMARK   50  A    between atoms: _129  and  _131
REMARK   51  A    between atoms: _131  and  _132
REMARK   52  A    between atoms: _131  and  _134
REMARK   53  A    between atoms: _134  and  _135
REMARK   54  A    between atoms: _140  and  _141
REMARK   55  A    between atoms: _143  and  _145
REMARK   56  A    between atoms: _145  and  _146
REMARK   57  A    between atoms: _145  and  _148
REMARK   58  A    between atoms: _148  and  _149
REMARK   59  A    between atoms: _154  and  _155
REMARK   60  A    between atoms: _157  and  _159
REMARK   61  A    between atoms: _159  and  _160
REMARK   62  A    between atoms: _159  and  _162
REMARK   63  A    between atoms: _165  and  _167
REMARK   64  A    between atoms: _167  and  _168
REMARK   65  A    between atoms: _167  and  _170
REMARK   66  A    between atoms: _170  and  _171
REMARK   67  A    between atoms: _177  and  _178
REMARK   68  A    between atoms: _183  and  _185
REMARK   69  A    between atoms: _185  and  _186
REMARK   70  A    between atoms: _185  and  _188
REMARK   71  A    between atoms: _188  and  _189
REMARK   72  A    between atoms: _191  and  _193
REMARK   73  A    between atoms: _193  and  _194
REMARK   74  A    between atoms: _193  and  _196
REMARK   75  A    between atoms: _196  and  _197
REMARK   76  A    between atoms: _197  and  _198
REMARK   77  A    between atoms: _201  and  _203
REMARK   78  A    between atoms: _203  and  _204
REMARK   79  A    between atoms: _203  and  _206
REMARK   80  A    between atoms: _206  and  _207
REMARK   81  A    between atoms: _212  and  _213
REMARK   82  A    between atoms: _215  and  _217
REMARK   83  A    between atoms: _217  and  _218
REMARK   84  A    between atoms: _217  and  _220
REMARK   85  A    between atoms: _220  and  _221
REMARK   86  A    between atoms: _226  and  _228
REMARK   87  A    between atoms: _228  and  _229
REMARK   88  A    between atoms: _228  and  _231
REMARK   89  A    between atoms: _231  and  _232
REMARK   90  A    between atoms: _237  and  _239
REMARK   91  A    between atoms: _239  and  _240
REMARK   92  A    between atoms: _239  and  _242
REMARK   93  A    between atoms: _242  and  _243
REMARK   94  A    between atoms: _243  and  _244
REMARK   95  A    between atoms: _246  and  _248
REMARK   96  A    between atoms: _248  and  _249
REMARK   97  A    between atoms: _248  and  _251
REMARK   98  A    between atoms: _251  and  _252
REMARK   99  A    between atoms: _257  and  _258
REMARK  100  A    between atoms: _260  and  _262
REMARK  101  A    between atoms: _262  and  _263
REMARK  102  A    between atoms: _262  and  _265
REMARK  103  A    between atoms: _265  and  _266
REMARK  104  A    between atoms: _269  and  _271
REMARK  105  A    between atoms: _271  and  _272
REMARK  106  A    between atoms: _271  and  _274
REMARK  107  A    between atoms: _274  and  _275
REMARK  108  A    between atoms: _275  and  _492
REMARK  109  A    between atoms: _276  and  _278
REMARK  110  A    between atoms: _278  and  _279
REMARK  111  A    between atoms: _278  and  _281
REMARK  112  A    between atoms: _281  and  _282
REMARK  113  A    between atoms: _285  and  _287
REMARK  114  A    between atoms: _287  and  _288
REMARK  115  A    between atoms: _287  and  _290
REMARK  116  A    between atoms: _290  and  _291
REMARK  117  A    between atoms: _296  and  _297
REMARK  118  A    between atoms: _299  and  _301
REMARK  119  A    between atoms: _301  and  _302
REMARK  120  A    between atoms: _301  and  _304
REMARK  121  A    between atoms: _304  and  _305
REMARK  122  A    between atoms: _310  and  _311
REMARK  123  A    between atoms: _313  and  _315
REMARK  124  A    between atoms: _315  and  _316
REMARK  125  A    between atoms: _315  and  _318
REMARK  126  A    between atoms: _318  and  _319
REMARK  127  A    between atoms: _319  and  _320
REMARK  128  A    between atoms: _323  and  _325
REMARK  129  A    between atoms: _325  and  _326
REMARK  130  A    between atoms: _325  and  _328
REMARK  131  A    between atoms: _328  and  _329
REMARK  132  A    between atoms: _334  and  _335
REMARK  133  A    between atoms: _337  and  _339
REMARK  134  A    between atoms: _339  and  _340
REMARK  135  A    between atoms: _339  and  _342
REMARK  136  A    between atoms: _342  and  _343
REMARK  137  A    between atoms: _348  and  _350
REMARK  138  A    between atoms: _350  and  _351
REMARK  139  A    between atoms: _350  and  _353
REMARK  140  A    between atoms: _353  and  _354
REMARK  141  A    between atoms: _357  and  _359
REMARK  142  A    between atoms: _359  and  _360
REMARK  143  A    between atoms: _359  and  _362
REMARK  144  A    between atoms: _362  and  _363
REMARK  145  A    between atoms: _368  and  _370
REMARK  146  A    between atoms: _370  and  _371
REMARK  147  A    between atoms: _370  and  _373
REMARK  148  A    between atoms: _373  and  _374
REMARK  149  A    between atoms: _384  and  _386
REMARK  150  A    between atoms: _386  and  _387
REMARK  151  A    between atoms: _386  and  _389
REMARK  152  A    between atoms: _389  and  _390
REMARK  153  A    between atoms: _396  and  _398
REMARK  154  A    between atoms: _398  and  _399
REMARK  155  A    between atoms: _398  and  _401
REMARK  156  A    between atoms: _401  and  _402
REMARK  157  A    between atoms: _405  and  _407
REMARK  158  A    between atoms: _407  and  _408
REMARK  159  A    between atoms: _407  and  _410
REMARK  160  A    between atoms: _410  and  _411
REMARK  161  A    between atoms: _414  and  _416
REMARK  162  A    between atoms: _416  and  _417
REMARK  163  A    between atoms: _416  and  _419
REMARK  164  A    between atoms: _419  and  _420
REMARK  165  A    between atoms: _420  and  _421
REMARK  166  A    between atoms: _421  and  _422
REMARK  167  A    between atoms: _431  and  _433
REMARK  168  A    between atoms: _433  and  _434
REMARK  169  A    between atoms: _433  and  _436
REMARK  170  A    between atoms: _436  and  _437
REMARK  171  A    between atoms: _442  and  _444
REMARK  172  A    between atoms: _444  and  _445
REMARK  173  A    between atoms: _444  and  _447
REMARK  174  A    between atoms: _447  and  _448
REMARK  175  A    between atoms: _449  and  _450
REMARK  176  A    between atoms: _459  and  _461
REMARK  177  A    between atoms: _461  and  _462
REMARK  178  A    between atoms: _465  and  _467
REMARK  179  A    between atoms: _467  and  _468
REMARK  180  A    between atoms: _470  and  _472
REMARK  181  A    between atoms: _472  and  _473
REMARK  182  A    between atoms: _472  and  _475
REMARK  183  A    between atoms: _475  and  _476
REMARK  184  A    between atoms: _486  and  _488
REMARK  185  A    between atoms: _488  and  _489
REMARK  186  A    between atoms: _488  and  _491
REMARK  187  A    between atoms: _491  and  _492
REMARK  188  A    between atoms: _493  and  _495
REMARK  189  A    between atoms: _495  and  _496
REMARK  190  A    between atoms: _499  and  _501
REMARK  191  A    between atoms: _501  and  _502
REMARK  192  A    between atoms: _501  and  _504
REMARK  193  A    between atoms: _504  and  _505
REMARK  194  A    between atoms: _508  and  _510
REMARK  195  A    between atoms: _510  and  _511
REMARK  196  A    between atoms: _510  and  _513
REMARK  197  A    between atoms: _513  and  _514
REMARK  198  A    between atoms: _519  and  _520
REMARK  199  A    between atoms: _522  and  _524
REMARK  200  A    between atoms: _524  and  _525
REMARK  201  A    between atoms: _524  and  _527
REMARK  202  A    between atoms: _527  and  _528
REMARK  203  A    between atoms: _530  and  _532
REMARK  204  A    between atoms: _532  and  _533
REMARK  205  A    between atoms: _532  and  _535
REMARK  206  A    between atoms: _535  and  _536
REMARK  207  A    between atoms: _542  and  _544
REMARK  208  A    between atoms: _544  and  _545
REMARK  209  A    between atoms: _544  and  _547
REMARK  210  A    between atoms: _547  and  _548
REMARK  211  A    between atoms: _551  and  _553
REMARK  212  A    between atoms: _553  and  _554
REMARK  213  A    between atoms: _553  and  _556
REMARK  214  A    between atoms: _556  and  _557
REMARK  215  A    between atoms: _559  and  _561
REMARK  216  A    between atoms: _561  and  _562
REMARK  217  A    between atoms: _561  and  _564
REMARK  218  A    between atoms: _564  and  _565
REMARK  219  A    between atoms: _570  and  _572
REMARK  220  A    between atoms: _572  and  _573
REMARK  221  A    between atoms: _572  and  _575
REMARK  222  A    between atoms: _575  and  _576
REMARK  223  A    between atoms: _581  and  _583
REMARK  224  A    between atoms: _583  and  _584
REMARK  225  A    between atoms: _583  and  _586
REMARK  226  A    between atoms: _586  and  _587
REMARK  227  A    between atoms: _590  and  _592
REMARK  228  A    between atoms: _592  and  _593
REMARK  229  A    between atoms: _596  and  _598
REMARK  230  A    between atoms: _598  and  _599
REMARK  231  A    between atoms: _598  and  _601
REMARK  232  A    between atoms: _601  and  _602
REMARK  233  A    between atoms: _607  and  _608
REMARK  234  A    between atoms: _610  and  _612
REMARK  235  A    between atoms: _612  and  _613
REMARK  236  A    between atoms: _612  and  _615
REMARK  237  A    between atoms: _615  and  _616
REMARK  238  A    between atoms: _621  and  _622
REMARK  239  A    between atoms: _624  and  _626
REMARK  240  A    between atoms: _626  and  _627
REMARK  241  A    between atoms: _626  and  _629
REMARK  242  A    between atoms: _632  and  _634
REMARK  243  A    between atoms: _634  and  _635
REMARK  244  A    between atoms: _634  and  _637
REMARK  245  A    between atoms: _637  and  _638
REMARK  246  A    between atoms: _643  and  _645
REMARK  247  A    between atoms: _645  and  _646
REMARK  248  A    between atoms: _649  and  _651
REMARK  249  A    between atoms: _651  and  _652
REMARK  250  A    between atoms: _651  and  _654
REMARK  251  A    between atoms: _654  and  _655
REMARK  252  A    between atoms: _655  and  _656
REMARK  253  A    between atoms: _656  and  _657
REMARK  254  A    between atoms: _666  and  _668
REMARK  255  A    between atoms: _668  and  _669
REMARK  256  A    between atoms: _668  and  _671
REMARK  257  A    between atoms: _671  and  _672
REMARK  258  A    between atoms: _675  and  _677
REMARK  259  A    between atoms: _677  and  _678
REMARK  260  A    between atoms: _677  and  _680
REMARK  261  A    between atoms: _680  and  _681
REMARK  262  A    between atoms: _684  and  _686
REMARK  263  A    between atoms: _686  and  _687
REMARK  264  A    between atoms: _686  and  _689
REMARK  265  A    between atoms: _689  and  _690
REMARK                            x       y       z     vdW  Elec       q    Type
REMARK                         _______ _______ _______ _____ _____    ______ ____
ROOT
ATOM      1  CA  ARG A   1       5.797  29.015  23.365  0.00  0.00    +0.145 C 
ENDROOT
BRANCH   1   2
ATOM      2  C   ARG A   1       7.314  28.920  23.417  0.00  0.00    +0.238 C 
ATOM      3  O   ARG A   1       7.842  28.648  24.501  0.00  0.00    -0.274 OA
ATOM      4  N   HIS A   2       7.988  29.198  22.292  0.00  0.00    -0.298 N 
ATOM      5  H   HIS A   2       7.492  29.402  21.401  0.00  0.00    +0.150 HD
BRANCH   4   6
ATOM      6  CA  HIS A   2       9.460  29.203  22.368  0.00  0.00    +0.143 C 
BRANCH   6   7
ATOM      7  C   HIS A   2       9.953  30.314  23.279  0.00  0.00    +0.227 C 
ATOM      8  O   HIS A   2      10.931  30.103  24.021  0.00  0.00    -0.286 OA
ENDBRANCH   6   7
BRANCH   6   9
ATOM      9  CB  HIS A   2      10.156  29.295  21.009  0.00  0.00    +0.075 C 
BRANCH   9  10
ATOM     10  CG  HIS A   2      10.174  27.934  20.352  0.00  0.00    +0.082 A 
ATOM     11  ND1 HIS A   2      11.001  26.909  20.778  0.00  0.00    -0.227 NA
ATOM     12  CE1 HIS A   2      10.777  25.821  20.038  0.00  0.00    +0.199 A 
ATOM     13  NE2 HIS A   2       9.833  26.115  19.161  0.00  0.00    -0.221 NA
ATOM     14  CD2 HIS A   2       9.450  27.430  19.338  0.00  0.00    +0.115 A 
ENDBRANCH   9  10
ENDBRANCH   6   9
ENDBRANCH   4   6
ENDBRANCH   1   2
BRANCH   1  15
ATOM     15  N   ARG A   1       5.390  30.170  22.543  0.00  0.00    -0.238 NA
ATOM     16  H   ARG A   1       4.859  30.018  21.662  0.00  0.00    +0.142 HD
ENDBRANCH   1  15
BRANCH   1  17
ATOM     17  CB  ARG A   1       5.166  27.725  22.824  0.00  0.00    +0.030 C 
BRANCH  17  18
ATOM     18  CG  ARG A   1       3.649  27.815  23.104  0.00  0.00    +0.045 C 
BRANCH  18  19
ATOM     19  CD  ARG A   1       2.874  26.789  22.303  0.00  0.00    +0.174 C 
BRANCH  19  20
ATOM     20  NE  ARG A   1       3.374  25.452  22.512  0.00  0.00    -0.265 N 
ATOM     21  HE  ARG A   1       3.886  25.289  23.402  0.00  0.00    +0.259 HD
ATOM     22  CZ  ARG A   1       3.259  24.406  21.705  0.00  0.00    +0.342 C 
ATOM     23  NH2 ARG A   1       3.790  23.252  22.119  0.00  0.00    -0.292 N 
ATOM     24 HH21 ARG A   1       4.269  23.201  23.041  0.00  0.00    +0.255 HD
ATOM     25 HH22 ARG A   1       3.724  22.405  21.520  0.00  0.00    +0.255 HD
ATOM     26  NH1 ARG A   1       2.624  24.478  20.521  0.00  0.00    -0.292 N 
ATOM     27 HH11 ARG A   1       2.202  25.377  20.211  0.00  0.00    +0.255 HD
ATOM     28 HH12 ARG A   1       2.555  23.635  19.916  0.00  0.00    +0.255 HD
ENDBRANCH  19  20
ENDBRANCH  18  19
ENDBRANCH  17  18
ENDBRANCH   1  17
TORSDOF 10
REMARK  Name = ../refined-set-2016/1b2h/1b2h_pocket.pdb
REMARK  265 active torsions:
REMARK  status: ('A' for Active; 'I' for Inactive)
REMARK    1  A    between atoms: _1  and  _3
REMARK    2  A    between atoms: _3  and  _4
REMARK    3  A    between atoms: _3  and  _6
REMARK    4  A    between atoms: _6  and  _7
REMARK    5  A    between atoms: _12  and  _14
REMARK    6  A    between atoms: _14  and  _15
REMARK    7  A    between atoms: _17  and  _19
REMARK    8  A    between atoms: _19  and  _20
REMARK    9  A    between atoms: _19  and  _22
REMARK   10  A    between atoms: _22  and  _23
REMARK   11  A    between atoms: _25  and  _27
REMARK   12  A    between atoms: _27  and  _28
REMARK   13  A    between atoms: _27  and  _30
REMARK   14  A    between atoms: _30  and  _31
REMARK   15  A    between atoms: _31  and  _32
REMARK   16  A    between atoms: _37  and  _39
REMARK   17  A    between atoms: _39  and  _40
REMARK   18  A    between atoms: _39  and  _42
REMARK   19  A    between atoms: _42  and  _43
REMARK   20  A    between atoms: _46  and  _48
REMARK   21  A    between atoms: _48  and  _49
REMARK   22  A    between atoms: _48  and  _51
REMARK   23  A    between atoms: _52  and  _53
REMARK   24  A    between atoms: _56  and  _58
REMARK   25  A    between atoms: _58  and  _59
REMARK   26  A    between atoms: _61  and  _63
REMARK   27  A    between atoms: _63  and  _64
REMARK   28  A    between atoms: _63  and  _66
REMARK   29  A    between atoms: _70  and  _71
REMARK   30  A    between atoms: _76  and  _78
REMARK   31  A    between atoms: _78  and  _79
REMARK   32  A    between atoms: _78  and  _81
REMARK   33  A    between atoms: _81  and  _82
REMARK   34  A    between atoms: _82  and  _83
REMARK   35  A    between atoms: _86  and  _88
REMARK   36  A    between atoms: _88  and  _89
REMARK   37  A    between atoms: _88  and  _91
REMARK   38  A    between atoms: _91  and  _92
REMARK   39  A    between atoms: _94  and  _96
REMARK   40  A    between atoms: _96  and  _97
REMARK   41  A    between atoms: _96  and  _99
REMARK   42  A    between atoms: _99  and  _100
REMARK   43  A    between atoms: _105  and  _107
REMARK   44  A    between atoms: _107  and  _108
REMARK   45  A    between atoms: _107  and  _110
REMARK   46  A    between atoms: _110  and  _111
REMARK   47  A    between atoms: _111  and  _112
REMARK   48  A    between atoms: _112  and  _113
REMARK   49  A    between atoms: _123  and  _124
REMARK   50  A    between atoms: _129  and  _131
REMARK   51  A    between atoms: _131  and  _132
REMARK   52  A    between atoms: _131  and  _134
REMARK   53  A    between atoms: _134  and  _135
REMARK   54  A    between atoms: _140  and  _141
REMARK   55  A    between atoms: _143  and  _145
REMARK   56  A    between atoms: _145  and  _146
REMARK   57  A    between atoms: _145  and  _148
REMARK   58  A    between atoms: _148  and  _149
REMARK   59  A    between atoms: _154  and  _155
REMARK   60  A    between atoms: _157  and  _159
REMARK   61  A    between atoms: _159  and  _160
REMARK   62  A    between atoms: _159  and  _162
REMARK   63  A    between atoms: _165  and  _167
REMARK   64  A    between atoms: _167  and  _168
REMARK   65  A    between atoms: _167  and  _170
REMARK   66  A    between atoms: _170  and  _171
REMARK   67  A    between atoms: _177  and  _178
REMARK   68  A    between atoms: _183  and  _185
REMARK   69  A    between atoms: _185  and  _186
REMARK   70  A    between atoms: _185  and  _188
REMARK   71  A    between atoms: _188  and  _189
REMARK   72  A    between atoms: _191  and  _193
REMARK   73  A    between atoms: _193  and  _194
REMARK   74  A    between atoms: _193  and  _196
REMARK   75  A    between atoms: _196  and  _197
REMARK   76  A    between atoms: _197  and  _198
REMARK   77  A    between atoms: _201  and  _203
REMARK   78  A    between atoms: _203  and  _204
REMARK   79  A    between atoms: _203  and  _206
REMARK   80  A    between atoms: _206  and  _207
REMARK   81  A    between atoms: _212  and  _213
REMARK   82  A    between atoms: _215  and  _217
REMARK   83  A    between atoms: _217  and  _218
REMARK   84  A    between atoms: _217  and  _220
REMARK   85  A    between atoms: _220  and  _221
REMARK   86  A    between atoms: _226  and  _228
REMARK   87  A    between atoms: _228  and  _229
REMARK   88  A    between atoms: _228  and  _231
REMARK   89  A    between atoms: _231  and  _232
REMARK   90  A    between atoms: _237  and  _239
REMARK   91  A    between atoms: _239  and  _240
REMARK   92  A    between atoms: _239  and  _242
REMARK   93  A    between atoms: _242  and  _243
REMARK   94  A    between atoms: _243  and  _244
REMARK   95  A    between atoms: _246  and  _248
REMARK   96  A    between atoms: _248  and  _249
REMARK   97  A    between atoms: _248  and  _251
REMARK   98  A    between atoms: _251  and  _252
REMARK   99  A    between atoms: _257  and  _258
REMARK  100  A    between atoms: _260  and  _262
REMARK  101  A    between atoms: _262  and  _263
REMARK  102  A    between atoms: _262  and  _265
REMARK  103  A    between atoms: _265  and  _266
REMARK  104  A    between atoms: _269  and  _271
REMARK  105  A    between atoms: _271  and  _272
REMARK  106  A    between atoms: _271  and  _274
REMARK  107  A    between atoms: _274  and  _275
REMARK  108  A    between atoms: _275  and  _492
REMARK  109  A    between atoms: _276  and  _278
REMARK  110  A    between atoms: _278  and  _279
REMARK  111  A    between atoms: _278  and  _281
REMARK  112  A    between atoms: _281  and  _282
REMARK  113  A    between atoms: _285  and  _287
REMARK  114  A    between atoms: _287  and  _288
REMARK  115  A    between atoms: _287  and  _290
REMARK  116  A    between atoms: _290  and  _291
REMARK  117  A    between atoms: _296  and  _297
REMARK  118  A    between atoms: _299  and  _301
REMARK  119  A    between atoms: _301  and  _302
REMARK  120  A    between atoms: _301  and  _304
REMARK  121  A    between atoms: _304  and  _305
REMARK  122  A    between atoms: _310  and  _311
REMARK  123  A    between atoms: _313  and  _315
REMARK  124  A    between atoms: _315  and  _316
REMARK  125  A    between atoms: _315  and  _318
REMARK  126  A    between atoms: _318  and  _319
REMARK  127  A    between atoms: _319  and  _320
REMARK  128  A    between atoms: _323  and  _325
REMARK  129  A    between atoms: _325  and  _326
REMARK  130  A    between atoms: _325  and  _328
REMARK  131  A    between atoms: _328  and  _329
REMARK  132  A    between atoms: _334  and  _335
REMARK  133  A    between atoms: _337  and  _339
REMARK  134  A    between atoms: _339  and  _340
REMARK  135  A    between atoms: _339  and  _342
REMARK  136  A    between atoms: _342  and  _343
REMARK  137  A    between atoms: _348  and  _350
REMARK  138  A    between atoms: _350  and  _351
REMARK  139  A    between atoms: _350  and  _353
REMARK  140  A    between atoms: _353  and  _354
REMARK  141  A    between atoms: _357  and  _359
REMARK  142  A    between atoms: _359  and  _360
REMARK  143  A    between atoms: _359  and  _362
REMARK  144  A    between atoms: _362  and  _363
REMARK  145  A    between atoms: _368  and  _370
REMARK  146  A    between atoms: _370  and  _371
REMARK  147  A    between atoms: _370  and  _373
REMARK  148  A    between atoms: _373  and  _374
REMARK  149  A    between atoms: _384  and  _386
REMARK  150  A    between atoms: _386  and  _387
REMARK  151  A    between atoms: _386  and  _389
REMARK  152  A    between atoms: _389  and  _390
REMARK  153  A    between atoms: _396  and  _398
REMARK  154  A    between atoms: _398  and  _399
REMARK  155  A    between atoms: _398  and  _401
REMARK  156  A    between atoms: _401  and  _402
REMARK  157  A    between atoms: _405  and  _407
REMARK  158  A    between atoms: _407  and  _408
REMARK  159  A    between atoms: _407  and  _410
REMARK  160  A    between atoms: _410  and  _411
REMARK  161  A    between atoms: _414  and  _416
REMARK  162  A    between atoms: _416  and  _417
REMARK  163  A    between atoms: _416  and  _419
REMARK  164  A    between atoms: _419  and  _420
REMARK  165  A    between atoms: _420  and  _421
REMARK  166  A    between atoms: _421  and  _422
REMARK  167  A    between atoms: _431  and  _433
REMARK  168  A    between atoms: _433  and  _434
REMARK  169  A    between atoms: _433  and  _436
REMARK  170  A    between atoms: _436  and  _437
REMARK  171  A    between atoms: _442  and  _444
REMARK  172  A    between atoms: _444  and  _445
REMARK  173  A    between atoms: _444  and  _447
REMARK  174  A    between atoms: _447  and  _448
REMARK  175  A    between atoms: _449  and  _450
REMARK  176  A    between atoms: _459  and  _461
REMARK  177  A    between atoms: _461  and  _462
REMARK  178  A    between atoms: _465  and  _467
REMARK  179  A    between atoms: _467  and  _468
REMARK  180  A    between atoms: _470  and  _472
REMARK  181  A    between atoms: _472  and  _473
REMARK  182  A    between atoms: _472  and  _475
REMARK  183  A    between atoms: _475  and  _476
REMARK  184  A    between atoms: _486  and  _488
REMARK  185  A    between atoms: _488  and  _489
REMARK  186  A    between atoms: _488  and  _491
REMARK  187  A    between atoms: _491  and  _492
REMARK  188  A    between atoms: _493  and  _495
REMARK  189  A    between atoms: _495  and  _496
REMARK  190  A    between atoms: _499  and  _501
REMARK  191  A    between atoms: _501  and  _502
REMARK  192  A    between atoms: _501  and  _504
REMARK  193  A    between atoms: _504  and  _505
REMARK  194  A    between atoms: _508  and  _510
REMARK  195  A    between atoms: _510  and  _511
REMARK  196  A    between atoms: _510  and  _513
REMARK  197  A    between atoms: _513  and  _514
REMARK  198  A    between atoms: _519  and  _520
REMARK  199  A    between atoms: _522  and  _524
REMARK  200  A    between atoms: _524  and  _525
REMARK  201  A    between atoms: _524  and  _527
REMARK  202  A    between atoms: _527  and  _528
REMARK  203  A    between atoms: _530  and  _532
REMARK  204  A    between atoms: _532  and  _533
REMARK  205  A    between atoms: _532  and  _535
REMARK  206  A    between atoms: _535  and  _536
REMARK  207  A    between atoms: _542  and  _544
REMARK  208  A    between atoms: _544  and  _545
REMARK  209  A    between atoms: _544  and  _547
REMARK  210  A    between atoms: _547  and  _548
REMARK  211  A    between atoms: _551  and  _553
REMARK  212  A    between atoms: _553  and  _554
REMARK  213  A    between atoms: _553  and  _556
REMARK  214  A    between atoms: _556  and  _557
REMARK  215  A    between atoms: _559  and  _561
REMARK  216  A    between atoms: _561  and  _562
REMARK  217  A    between atoms: _561  and  _564
REMARK  218  A    between atoms: _564  and  _565
REMARK  219  A    between atoms: _570  and  _572
REMARK  220  A    between atoms: _572  and  _573
REMARK  221  A    between atoms: _572  and  _575
REMARK  222  A    between atoms: _575  and  _576
REMARK  223  A    between atoms: _581  and  _583
REMARK  224  A    between atoms: _583  and  _584
REMARK  225  A    between atoms: _583  and  _586
REMARK  226  A    between atoms: _586  and  _587
REMARK  227  A    between atoms: _590  and  _592
REMARK  228  A    between atoms: _592  and  _593
REMARK  229  A    between atoms: _596  and  _598
REMARK  230  A    between atoms: _598  and  _599
REMARK  231  A    between atoms: _598  and  _601
REMARK  232  A    between atoms: _601  and  _602
REMARK  233  A    between atoms: _607  and  _608
REMARK  234  A    between atoms: _610  and  _612
REMARK  235  A    between atoms: _612  and  _613
REMARK  236  A    between atoms: _612  and  _615
REMARK  237  A    between atoms: _615  and  _616
REMARK  238  A    between atoms: _621  and  _622
REMARK  239  A    between atoms: _624  and  _626
REMARK  240  A    between atoms: _626  and  _627
REMARK  241  A    between atoms: _626  and  _629
REMARK  242  A    between atoms: _632  and  _634
REMARK  243  A    between atoms: _634  and  _635
REMARK  244  A    between atoms: _634  and  _637
REMARK  245  A    between atoms: _637  and  _638
REMARK  246  A    between atoms: _643  and  _645
REMARK  247  A    between atoms: _645  and  _646
REMARK  248  A    between atoms: _649  and  _651
REMARK  249  A    between atoms: _651  and  _652
REMARK  250  A    between atoms: _651  and  _654
REMARK  251  A    between atoms: _654  and  _655
REMARK  252  A    between atoms: _655  and  _656
REMARK  253  A    between atoms: _656  and  _657
REMARK  254  A    between atoms: _666  and  _668
REMARK  255  A    between atoms: _668  and  _669
REMARK  256  A    between atoms: _668  and  _671
REMARK  257  A    between atoms: _671  and  _672
REMARK  258  A    between atoms: _675  and  _677
REMARK  259  A    between atoms: _677  and  _678
REMARK  260  A    between atoms: _677  and  _680
REMARK  261  A    between atoms: _680  and  _681
REMARK  262  A    between atoms: _684  and  _686
REMARK  263  A    between atoms: _686  and  _687
REMARK  264  A    between atoms: _686  and  _689
REMARK  265  A    between atoms: _689  and  _690
REMARK                            x       y       z     vdW  Elec       q    Type
REMARK                         _______ _______ _______ _____ _____    ______ ____
ROOT
ATOM      1  C   SER A   1       9.957  11.936  19.614  0.00  0.00    +0.241 C 
ATOM      2  N   PHE A   2       9.266  11.350  20.593  0.00  0.00    -0.298 N 
ATOM      3  H   PHE A   2       9.207  10.313  20.641  0.00  0.00    +0.150 HD
ATOM      4  O   SER A   1       9.881  13.148  19.380  0.00  0.00    -0.274 OA
ENDROOT
BRANCH   1   5
ATOM      5  CA  SER A   1      10.814  11.032  18.728  0.00  0.00    +0.174 C 
BRANCH   5   6
ATOM      6  N   SER A   1      11.368   9.906  19.482  0.00  0.00    -0.236 NA
ATOM      7  H   SER A   1      11.214   8.927  19.166  0.00  0.00    +0.142 HD
ENDBRANCH   5   6
BRANCH   5   8
ATOM      8  CB  SER A   1       9.970  10.543  17.537  0.00  0.00    +0.163 C 
BRANCH   8   9
ATOM      9  OG  SER A   1       9.725  11.656  16.715  0.00  0.00    -0.380 OA
ATOM     10  H   SER A   1      10.587  12.029  16.401  0.00  0.00    +0.211 HD
ENDBRANCH   8   9
ENDBRANCH   5   8
ENDBRANCH   1   5
BRANCH   2  11
ATOM     11  CA  PHE A   2       8.596  12.163  21.592  0.00  0.00    +0.141 C 
BRANCH  11  12
ATOM     12  C   PHE A   2       9.535  12.535  22.747  0.00  0.00    +0.227 C 
ATOM     13  O   PHE A   2       9.643  13.698  23.135  0.00  0.00    -0.286 OA
ENDBRANCH  11  12
BRANCH  11  14
ATOM     14  CB  PHE A   2       7.435  11.399  22.251  0.00  0.00    +0.054 C 
BRANCH  14  15
ATOM     15  CG  PHE A   2       6.177  11.547  21.415  0.00  0.00    -0.020 A 
ATOM     16  CD2 PHE A   2       5.153  12.364  21.845  0.00  0.00    -0.004 A 
ATOM     17  CE2 PHE A   2       4.013  12.502  21.073  0.00  0.00    -0.000 A 
ATOM     18  CZ  PHE A   2       3.905  11.851  19.856  0.00  0.00    -0.000 A 
ATOM     19  CE1 PHE A   2       4.926  11.031  19.420  0.00  0.00    -0.000 A 
ATOM     20  CD1 PHE A   2       6.073  10.892  20.201  0.00  0.00    -0.004 A 
ENDBRANCH  14  15
ENDBRANCH  11  14
ENDBRANCH   2  11
TORSDOF 8
REMARK  Name = ../refined-set-2016/1b2h/1b2h_pocket.pdb
REMARK  265 active torsions:
REMARK  status: ('A' for Active; 'I' for Inactive)
REMARK    1  A    between atoms: _1  and  _3
REMARK    2  A    between atoms: _3  and  _4
REMARK    3  A    between atoms: _3  and  _6
REMARK    4  A    between atoms: _6  and  _7
REMARK    5  A    between atoms: _12  and  _14
REMARK    6  A    between atoms: _14  and  _15
REMARK    7  A    between atoms: _17  and  _19
REMARK    8  A    between atoms: _19  and  _20
REMARK    9  A    between atoms: _19  and  _22
REMARK   10  A    between atoms: _22  and  _23
REMARK   11  A    between atoms: _25  and  _27
REMARK   12  A    between atoms: _27  and  _28
REMARK   13  A    between atoms: _27  and  _30
REMARK   14  A    between atoms: _30  and  _31
REMARK   15  A    between atoms: _31  and  _32
REMARK   16  A    between atoms: _37  and  _39
REMARK   17  A    between atoms: _39  and  _40
REMARK   18  A    between atoms: _39  and  _42
REMARK   19  A    between atoms: _42  and  _43
REMARK   20  A    between atoms: _46  and  _48
REMARK   21  A    between atoms: _48  and  _49
REMARK   22  A    between atoms: _48  and  _51
REMARK   23  A    between atoms: _52  and  _53
REMARK   24  A    between atoms: _56  and  _58
REMARK   25  A    between atoms: _58  and  _59
REMARK   26  A    between atoms: _61  and  _63
REMARK   27  A    between atoms: _63  and  _64
REMARK   28  A    between atoms: _63  and  _66
REMARK   29  A    between atoms: _70  and  _71
REMARK   30  A    between atoms: _76  and  _78
REMARK   31  A    between atoms: _78  and  _79
REMARK   32  A    between atoms: _78  and  _81
REMARK   33  A    between atoms: _81  and  _82
REMARK   34  A    between atoms: _82  and  _83
REMARK   35  A    between atoms: _86  and  _88
REMARK   36  A    between atoms: _88  and  _89
REMARK   37  A    between atoms: _88  and  _91
REMARK   38  A    between atoms: _91  and  _92
REMARK   39  A    between atoms: _94  and  _96
REMARK   40  A    between atoms: _96  and  _97
REMARK   41  A    between atoms: _96  and  _99
REMARK   42  A    between atoms: _99  and  _100
REMARK   43  A    between atoms: _105  and  _107
REMARK   44  A    between atoms: _107  and  _108
REMARK   45  A    between atoms: _107  and  _110
REMARK   46  A    between atoms: _110  and  _111
REMARK   47  A    between atoms: _111  and  _112
REMARK   48  A    between atoms: _112  and  _113
REMARK   49  A    between atoms: _123  and  _124
REMARK   50  A    between atoms: _129  and  _131
REMARK   51  A    between atoms: _131  and  _132
REMARK   52  A    between atoms: _131  and  _134
REMARK   53  A    between atoms: _134  and  _135
REMARK   54  A    between atoms: _140  and  _141
REMARK   55  A    between atoms: _143  and  _145
REMARK   56  A    between atoms: _145  and  _146
REMARK   57  A    between atoms: _145  and  _148
REMARK   58  A    between atoms: _148  and  _149
REMARK   59  A    between atoms: _154  and  _155
REMARK   60  A    between atoms: _157  and  _159
REMARK   61  A    between atoms: _159  and  _160
REMARK   62  A    between atoms: _159  and  _162
REMARK   63  A    between atoms: _165  and  _167
REMARK   64  A    between atoms: _167  and  _168
REMARK   65  A    between atoms: _167  and  _170
REMARK   66  A    between atoms: _170  and  _171
REMARK   67  A    between atoms: _177  and  _178
REMARK   68  A    between atoms: _183  and  _185
REMARK   69  A    between atoms: _185  and  _186
REMARK   70  A    between atoms: _185  and  _188
REMARK   71  A    between atoms: _188  and  _189
REMARK   72  A    between atoms: _191  and  _193
REMARK   73  A    between atoms: _193  and  _194
REMARK   74  A    between atoms: _193  and  _196
REMARK   75  A    between atoms: _196  and  _197
REMARK   76  A    between atoms: _197  and  _198
REMARK   77  A    between atoms: _201  and  _203
REMARK   78  A    between atoms: _203  and  _204
REMARK   79  A    between atoms: _203  and  _206
REMARK   80  A    between atoms: _206  and  _207
REMARK   81  A    between atoms: _212  and  _213
REMARK   82  A    between atoms: _215  and  _217
REMARK   83  A    between atoms: _217  and  _218
REMARK   84  A    between atoms: _217  and  _220
REMARK   85  A    between atoms: _220  and  _221
REMARK   86  A    between atoms: _226  and  _228
REMARK   87  A    between atoms: _228  and  _229
REMARK   88  A    between atoms: _228  and  _231
REMARK   89  A    between atoms: _231  and  _232
REMARK   90  A    between atoms: _237  and  _239
REMARK   91  A    between atoms: _239  and  _240
REMARK   92  A    between atoms: _239  and  _242
REMARK   93  A    between atoms: _242  and  _243
REMARK   94  A    between atoms: _243  and  _244
REMARK   95  A    between atoms: _246  and  _248
REMARK   96  A    between atoms: _248  and  _249
REMARK   97  A    between atoms: _248  and  _251
REMARK   98  A    between atoms: _251  and  _252
REMARK   99  A    between atoms: _257  and  _258
REMARK  100  A    between atoms: _260  and  _262
REMARK  101  A    between atoms: _262  and  _263
REMARK  102  A    between atoms: _262  and  _265
REMARK  103  A    between atoms: _265  and  _266
REMARK  104  A    between atoms: _269  and  _271
REMARK  105  A    between atoms: _271  and  _272
REMARK  106  A    between atoms: _271  and  _274
REMARK  107  A    between atoms: _274  and  _275
REMARK  108  A    between atoms: _275  and  _492
REMARK  109  A    between atoms: _276  and  _278
REMARK  110  A    between atoms: _278  and  _279
REMARK  111  A    between atoms: _278  and  _281
REMARK  112  A    between atoms: _281  and  _282
REMARK  113  A    between atoms: _285  and  _287
REMARK  114  A    between atoms: _287  and  _288
REMARK  115  A    between atoms: _287  and  _290
REMARK  116  A    between atoms: _290  and  _291
REMARK  117  A    between atoms: _296  and  _297
REMARK  118  A    between atoms: _299  and  _301
REMARK  119  A    between atoms: _301  and  _302
REMARK  120  A    between atoms: _301  and  _304
REMARK  121  A    between atoms: _304  and  _305
REMARK  122  A    between atoms: _310  and  _311
REMARK  123  A    between atoms: _313  and  _315
REMARK  124  A    between atoms: _315  and  _316
REMARK  125  A    between atoms: _315  and  _318
REMARK  126  A    between atoms: _318  and  _319
REMARK  127  A    between atoms: _319  and  _320
REMARK  128  A    between atoms: _323  and  _325
REMARK  129  A    between atoms: _325  and  _326
REMARK  130  A    between atoms: _325  and  _328
REMARK  131  A    between atoms: _328  and  _329
REMARK  132  A    between atoms: _334  and  _335
REMARK  133  A    between atoms: _337  and  _339
REMARK  134  A    between atoms: _339  and  _340
REMARK  135  A    between atoms: _339  and  _342
REMARK  136  A    between atoms: _342  and  _343
REMARK  137  A    between atoms: _348  and  _350
REMARK  138  A    between atoms: _350  and  _351
REMARK  139  A    between atoms: _350  and  _353
REMARK  140  A    between atoms: _353  and  _354
REMARK  141  A    between atoms: _357  and  _359
REMARK  142  A    between atoms: _359  and  _360
REMARK  143  A    between atoms: _359  and  _362
REMARK  144  A    between atoms: _362  and  _363
REMARK  145  A    between atoms: _368  and  _370
REMARK  146  A    between atoms: _370  and  _371
REMARK  147  A    between atoms: _370  and  _373
REMARK  148  A    between atoms: _373  and  _374
REMARK  149  A    between atoms: _384  and  _386
REMARK  150  A    between atoms: _386  and  _387
REMARK  151  A    between atoms: _386  and  _389
REMARK  152  A    between atoms: _389  and  _390
REMARK  153  A    between atoms: _396  and  _398
REMARK  154  A    between atoms: _398  and  _399
REMARK  155  A    between atoms: _398  and  _401
REMARK  156  A    between atoms: _401  and  _402
REMARK  157  A    between atoms: _405  and  _407
REMARK  158  A    between atoms: _407  and  _408
REMARK  159  A    between atoms: _407  and  _410
REMARK  160  A    between atoms: _410  and  _411
REMARK  161  A    between atoms: _414  and  _416
REMARK  162  A    between atoms: _416  and  _417
REMARK  163  A    between atoms: _416  and  _419
REMARK  164  A    between atoms: _419  and  _420
REMARK  165  A    between atoms: _420  and  _421
REMARK  166  A    between atoms: _421  and  _422
REMARK  167  A    between atoms: _431  and  _433
REMARK  168  A    between atoms: _433  and  _434
REMARK  169  A    between atoms: _433  and  _436
REMARK  170  A    between atoms: _436  and  _437
REMARK  171  A    between atoms: _442  and  _444
REMARK  172  A    between atoms: _444  and  _445
REMARK  173  A    between atoms: _444  and  _447
REMARK  174  A    between atoms: _447  and  _448
REMARK  175  A    between atoms: _449  and  _450
REMARK  176  A    between atoms: _459  and  _461
REMARK  177  A    between atoms: _461  and  _462
REMARK  178  A    between atoms: _465  and  _467
REMARK  179  A    between atoms: _467  and  _468
REMARK  180  A    between atoms: _470  and  _472
REMARK  181  A    between atoms: _472  and  _473
REMARK  182  A    between atoms: _472  and  _475
REMARK  183  A    between atoms: _475  and  _476
REMARK  184  A    between atoms: _486  and  _488
REMARK  185  A    between atoms: _488  and  _489
REMARK  186  A    between atoms: _488  and  _491
REMARK  187  A    between atoms: _491  and  _492
REMARK  188  A    between atoms: _493  and  _495
REMARK  189  A    between atoms: _495  and  _496
REMARK  190  A    between atoms: _499  and  _501
REMARK  191  A    between atoms: _501  and  _502
REMARK  192  A    between atoms: _501  and  _504
REMARK  193  A    between atoms: _504  and  _505
REMARK  194  A    between atoms: _508  and  _510
REMARK  195  A    between atoms: _510  and  _511
REMARK  196  A    between atoms: _510  and  _513
REMARK  197  A    between atoms: _513  and  _514
REMARK  198  A    between atoms: _519  and  _520
REMARK  199  A    between atoms: _522  and  _524
REMARK  200  A    between atoms: _524  and  _525
REMARK  201  A    between atoms: _524  and  _527
REMARK  202  A    between atoms: _527  and  _528
REMARK  203  A    between atoms: _530  and  _532
REMARK  204  A    between atoms: _532  and  _533
REMARK  205  A    between atoms: _532  and  _535
REMARK  206  A    between atoms: _535  and  _536
REMARK  207  A    between atoms: _542  and  _544
REMARK  208  A    between atoms: _544  and  _545
REMARK  209  A    between atoms: _544  and  _547
REMARK  210  A    between atoms: _547  and  _548
REMARK  211  A    between atoms: _551  and  _553
REMARK  212  A    between atoms: _553  and  _554
REMARK  213  A    between atoms: _553  and  _556
REMARK  214  A    between atoms: _556  and  _557
REMARK  215  A    between atoms: _559  and  _561
REMARK  216  A    between atoms: _561  and  _562
REMARK  217  A    between atoms: _561  and  _564
REMARK  218  A    between atoms: _564  and  _565
REMARK  219  A    between atoms: _570  and  _572
REMARK  220  A    between atoms: _572  and  _573
REMARK  221  A    between atoms: _572  and  _575
REMARK  222  A    between atoms: _575  and  _576
REMARK  223  A    between atoms: _581  and  _583
REMARK  224  A    between atoms: _583  and  _584
REMARK  225  A    between atoms: _583  and  _586
REMARK  226  A    between atoms: _586  and  _587
REMARK  227  A    between atoms: _590  and  _592
REMARK  228  A    between atoms: _592  and  _593
REMARK  229  A    between atoms: _596  and  _598
REMARK  230  A    between atoms: _598  and  _599
REMARK  231  A    between atoms: _598  and  _601
REMARK  232  A    between atoms: _601  and  _602
REMARK  233  A    between atoms: _607  and  _608
REMARK  234  A    between atoms: _610  and  _612
REMARK  235  A    between atoms: _612  and  _613
REMARK  236  A    between atoms: _612  and  _615
REMARK  237  A    between atoms: _615  and  _616
REMARK  238  A    between atoms: _621  and  _622
REMARK  239  A    between atoms: _624  and  _626
REMARK  240  A    between atoms: _626  and  _627
REMARK  241  A    between atoms: _626  and  _629
REMARK  242  A    between atoms: _632  and  _634
REMARK  243  A    between atoms: _634  and  _635
REMARK  244  A    between atoms: _634  and  _637
REMARK  245  A    between atoms: _637  and  _638
REMARK  246  A    between atoms: _643  and  _645
REMARK  247  A    between atoms: _645  and  _646
REMARK  248  A    between atoms: _649  and  _651
REMARK  249  A    between atoms: _651  and  _652
REMARK  250  A    between atoms: _651  and  _654
REMARK  251  A    between atoms: _654  and  _655
REMARK  252  A    between atoms: _655  and  _656
REMARK  253  A    between atoms: _656  and  _657
REMARK  254  A    between atoms: _666  and  _668
REMARK  255  A    between atoms: _668  and  _669
REMARK  256  A    between atoms: _668  and  _671
REMARK  257  A    between atoms: _671  and  _672
REMARK  258  A    between atoms: _675  and  _677
REMARK  259  A    between atoms: _677  and  _678
REMARK  260  A    between atoms: _677  and  _680
REMARK  261  A    between atoms: _680  and  _681
REMARK  262  A    between atoms: _684  and  _686
REMARK  263  A    between atoms: _686  and  _687
REMARK  264  A    between atoms: _686  and  _689
REMARK  265  A    between atoms: _689  and  _690
REMARK                            x       y       z     vdW  Elec       q    Type
REMARK                         _______ _______ _______ _____ _____    ______ ____
ROOT
ATOM      1  CA  THR A   1      11.706  16.812  23.102  0.00  0.00    +0.160 C 
ENDROOT
BRANCH   1   2
ATOM      2  N   THR A   1      12.185  15.444  23.026  0.00  0.00    -0.237 NA
ATOM      3  H   THR A   1      11.528  14.676  22.782  0.00  0.00    +0.142 HD
ENDBRANCH   1   2
BRANCH   1   4
ATOM      4  C   THR A   1      11.562  17.310  24.528  0.00  0.00    +0.227 C 
ATOM      5  O   THR A   1      11.435  18.544  24.670  0.00  0.00    -0.287 OA
ENDBRANCH   1   4
BRANCH   1   6
ATOM      6  CB  THR A   1      10.354  17.061  22.387  0.00  0.00    +0.134 C 
ATOM      7  CG2 THR A   1      10.509  16.646  20.939  0.00  0.00    +0.034 C 
BRANCH   6   8
ATOM      8  OG1 THR A   1       9.362  16.315  23.089  0.00  0.00    -0.383 OA
ATOM      9  HG1 THR A   1       9.597  15.353  23.067  0.00  0.00    +0.210 HD
ENDBRANCH   6   8
ENDBRANCH   1   6
TORSDOF 4
REMARK  Name = ../refined-set-2016/1b2h/1b2h_pocket.pdb
REMARK  265 active torsions:
REMARK  status: ('A' for Active; 'I' for Inactive)
REMARK    1  A    between atoms: _1  and  _3
REMARK    2  A    between atoms: _3  and  _4
REMARK    3  A    between atoms: _3  and  _6
REMARK    4  A    between atoms: _6  and  _7
REMARK    5  A    between atoms: _12  and  _14
REMARK    6  A    between atoms: _14  and  _15
REMARK    7  A    between atoms: _17  and  _19
REMARK    8  A    between atoms: _19  and  _20
REMARK    9  A    between atoms: _19  and  _22
REMARK   10  A    between atoms: _22  and  _23
REMARK   11  A    between atoms: _25  and  _27
REMARK   12  A    between atoms: _27  and  _28
REMARK   13  A    between atoms: _27  and  _30
REMARK   14  A    between atoms: _30  and  _31
REMARK   15  A    between atoms: _31  and  _32
REMARK   16  A    between atoms: _37  and  _39
REMARK   17  A    between atoms: _39  and  _40
REMARK   18  A    between atoms: _39  and  _42
REMARK   19  A    between atoms: _42  and  _43
REMARK   20  A    between atoms: _46  and  _48
REMARK   21  A    between atoms: _48  and  _49
REMARK   22  A    between atoms: _48  and  _51
REMARK   23  A    between atoms: _52  and  _53
REMARK   24  A    between atoms: _56  and  _58
REMARK   25  A    between atoms: _58  and  _59
REMARK   26  A    between atoms: _61  and  _63
REMARK   27  A    between atoms: _63  and  _64
REMARK   28  A    between atoms: _63  and  _66
REMARK   29  A    between atoms: _70  and  _71
REMARK   30  A    between atoms: _76  and  _78
REMARK   31  A    between atoms: _78  and  _79
REMARK   32  A    between atoms: _78  and  _81
REMARK   33  A    between atoms: _81  and  _82
REMARK   34  A    between atoms: _82  and  _83
REMARK   35  A    between atoms: _86  and  _88
REMARK   36  A    between atoms: _88  and  _89
REMARK   37  A    between atoms: _88  and  _91
REMARK   38  A    between atoms: _91  and  _92
REMARK   39  A    between atoms: _94  and  _96
REMARK   40  A    between atoms: _96  and  _97
REMARK   41  A    between atoms: _96  and  _99
REMARK   42  A    between atoms: _99  and  _100
REMARK   43  A    between atoms: _105  and  _107
REMARK   44  A    between atoms: _107  and  _108
REMARK   45  A    between atoms: _107  and  _110
REMARK   46  A    between atoms: _110  and  _111
REMARK   47  A    between atoms: _111  and  _112
REMARK   48  A    between atoms: _112  and  _113
REMARK   49  A    between atoms: _123  and  _124
REMARK   50  A    between atoms: _129  and  _131
REMARK   51  A    between atoms: _131  and  _132
REMARK   52  A    between atoms: _131  and  _134
REMARK   53  A    between atoms: _134  and  _135
REMARK   54  A    between atoms: _140  and  _141
REMARK   55  A    between atoms: _143  and  _145
REMARK   56  A    between atoms: _145  and  _146
REMARK   57  A    between atoms: _145  and  _148
REMARK   58  A    between atoms: _148  and  _149
REMARK   59  A    between atoms: _154  and  _155
REMARK   60  A    between atoms: _157  and  _159
REMARK   61  A    between atoms: _159  and  _160
REMARK   62  A    between atoms: _159  and  _162
REMARK   63  A    between atoms: _165  and  _167
REMARK   64  A    between atoms: _167  and  _168
REMARK   65  A    between atoms: _167  and  _170
REMARK   66  A    between atoms: _170  and  _171
REMARK   67  A    between atoms: _177  and  _178
REMARK   68  A    between atoms: _183  and  _185
REMARK   69  A    between atoms: _185  and  _186
REMARK   70  A    between atoms: _185  and  _188
REMARK   71  A    between atoms: _188  and  _189
REMARK   72  A    between atoms: _191  and  _193
REMARK   73  A    between atoms: _193  and  _194
REMARK   74  A    between atoms: _193  and  _196
REMARK   75  A    between atoms: _196  and  _197
REMARK   76  A    between atoms: _197  and  _198
REMARK   77  A    between atoms: _201  and  _203
REMARK   78  A    between atoms: _203  and  _204
REMARK   79  A    between atoms: _203  and  _206
REMARK   80  A    between atoms: _206  and  _207
REMARK   81  A    between atoms: _212  and  _213
REMARK   82  A    between atoms: _215  and  _217
REMARK   83  A    between atoms: _217  and  _218
REMARK   84  A    between atoms: _217  and  _220
REMARK   85  A    between atoms: _220  and  _221
REMARK   86  A    between atoms: _226  and  _228
REMARK   87  A    between atoms: _228  and  _229
REMARK   88  A    between atoms: _228  and  _231
REMARK   89  A    between atoms: _231  and  _232
REMARK   90  A    between atoms: _237  and  _239
REMARK   91  A    between atoms: _239  and  _240
REMARK   92  A    between atoms: _239  and  _242
REMARK   93  A    between atoms: _242  and  _243
REMARK   94  A    between atoms: _243  and  _244
REMARK   95  A    between atoms: _246  and  _248
REMARK   96  A    between atoms: _248  and  _249
REMARK   97  A    between atoms: _248  and  _251
REMARK   98  A    between atoms: _251  and  _252
REMARK   99  A    between atoms: _257  and  _258
REMARK  100  A    between atoms: _260  and  _262
REMARK  101  A    between atoms: _262  and  _263
REMARK  102  A    between atoms: _262  and  _265
REMARK  103  A    between atoms: _265  and  _266
REMARK  104  A    between atoms: _269  and  _271
REMARK  105  A    between atoms: _271  and  _272
REMARK  106  A    between atoms: _271  and  _274
REMARK  107  A    between atoms: _274  and  _275
REMARK  108  A    between atoms: _275  and  _492
REMARK  109  A    between atoms: _276  and  _278
REMARK  110  A    between atoms: _278  and  _279
REMARK  111  A    between atoms: _278  and  _281
REMARK  112  A    between atoms: _281  and  _282
REMARK  113  A    between atoms: _285  and  _287
REMARK  114  A    between atoms: _287  and  _288
REMARK  115  A    between atoms: _287  and  _290
REMARK  116  A    between atoms: _290  and  _291
REMARK  117  A    between atoms: _296  and  _297
REMARK  118  A    between atoms: _299  and  _301
REMARK  119  A    between atoms: _301  and  _302
REMARK  120  A    between atoms: _301  and  _304
REMARK  121  A    between atoms: _304  and  _305
REMARK  122  A    between atoms: _310  and  _311
REMARK  123  A    between atoms: _313  and  _315
REMARK  124  A    between atoms: _315  and  _316
REMARK  125  A    between atoms: _315  and  _318
REMARK  126  A    between atoms: _318  and  _319
REMARK  127  A    between atoms: _319  and  _320
REMARK  128  A    between atoms: _323  and  _325
REMARK  129  A    between atoms: _325  and  _326
REMARK  130  A    between atoms: _325  and  _328
REMARK  131  A    between atoms: _328  and  _329
REMARK  132  A    between atoms: _334  and  _335
REMARK  133  A    between atoms: _337  and  _339
REMARK  134  A    between atoms: _339  and  _340
REMARK  135  A    between atoms: _339  and  _342
REMARK  136  A    between atoms: _342  and  _343
REMARK  137  A    between atoms: _348  and  _350
REMARK  138  A    between atoms: _350  and  _351
REMARK  139  A    between atoms: _350  and  _353
REMARK  140  A    between atoms: _353  and  _354
REMARK  141  A    between atoms: _357  and  _359
REMARK  142  A    between atoms: _359  and  _360
REMARK  143  A    between atoms: _359  and  _362
REMARK  144  A    between atoms: _362  and  _363
REMARK  145  A    between atoms: _368  and  _370
REMARK  146  A    between atoms: _370  and  _371
REMARK  147  A    between atoms: _370  and  _373
REMARK  148  A    between atoms: _373  and  _374
REMARK  149  A    between atoms: _384  and  _386
REMARK  150  A    between atoms: _386  and  _387
REMARK  151  A    between atoms: _386  and  _389
REMARK  152  A    between atoms: _389  and  _390
REMARK  153  A    between atoms: _396  and  _398
REMARK  154  A    between atoms: _398  and  _399
REMARK  155  A    between atoms: _398  and  _401
REMARK  156  A    between atoms: _401  and  _402
REMARK  157  A    between atoms: _405  and  _407
REMARK  158  A    between atoms: _407  and  _408
REMARK  159  A    between atoms: _407  and  _410
REMARK  160  A    between atoms: _410  and  _411
REMARK  161  A    between atoms: _414  and  _416
REMARK  162  A    between atoms: _416  and  _417
REMARK  163  A    between atoms: _416  and  _419
REMARK  164  A    between atoms: _419  and  _420
REMARK  165  A    between atoms: _420  and  _421
REMARK  166  A    between atoms: _421  and  _422
REMARK  167  A    between atoms: _431  and  _433
REMARK  168  A    between atoms: _433  and  _434
REMARK  169  A    between atoms: _433  and  _436
REMARK  170  A    between atoms: _436  and  _437
REMARK  171  A    between atoms: _442  and  _444
REMARK  172  A    between atoms: _444  and  _445
REMARK  173  A    between atoms: _444  and  _447
REMARK  174  A    between atoms: _447  and  _448
REMARK  175  A    between atoms: _449  and  _450
REMARK  176  A    between atoms: _459  and  _461
REMARK  177  A    between atoms: _461  and  _462
REMARK  178  A    between atoms: _465  and  _467
REMARK  179  A    between atoms: _467  and  _468
REMARK  180  A    between atoms: _470  and  _472
REMARK  181  A    between atoms: _472  and  _473
REMARK  182  A    between atoms: _472  and  _475
REMARK  183  A    between atoms: _475  and  _476
REMARK  184  A    between atoms: _486  and  _488
REMARK  185  A    between atoms: _488  and  _489
REMARK  186  A    between atoms: _488  and  _491
REMARK  187  A    between atoms: _491  and  _492
REMARK  188  A    between atoms: _493  and  _495
REMARK  189  A    between atoms: _495  and  _496
REMARK  190  A    between atoms: _499  and  _501
REMARK  191  A    between atoms: _501  and  _502
REMARK  192  A    between atoms: _501  and  _504
REMARK  193  A    between atoms: _504  and  _505
REMARK  194  A    between atoms: _508  and  _510
REMARK  195  A    between atoms: _510  and  _511
REMARK  196  A    between atoms: _510  and  _513
REMARK  197  A    between atoms: _513  and  _514
REMARK  198  A    between atoms: _519  and  _520
REMARK  199  A    between atoms: _522  and  _524
REMARK  200  A    between atoms: _524  and  _525
REMARK  201  A    between atoms: _524  and  _527
REMARK  202  A    between atoms: _527  and  _528
REMARK  203  A    between atoms: _530  and  _532
REMARK  204  A    between atoms: _532  and  _533
REMARK  205  A    between atoms: _532  and  _535
REMARK  206  A    between atoms: _535  and  _536
REMARK  207  A    between atoms: _542  and  _544
REMARK  208  A    between atoms: _544  and  _545
REMARK  209  A    between atoms: _544  and  _547
REMARK  210  A    between atoms: _547  and  _548
REMARK  211  A    between atoms: _551  and  _553
REMARK  212  A    between atoms: _553  and  _554
REMARK  213  A    between atoms: _553  and  _556
REMARK  214  A    between atoms: _556  and  _557
REMARK  215  A    between atoms: _559  and  _561
REMARK  216  A    between atoms: _561  and  _562
REMARK  217  A    between atoms: _561  and  _564
REMARK  218  A    between atoms: _564  and  _565
REMARK  219  A    between atoms: _570  and  _572
REMARK  220  A    between atoms: _572  and  _573
REMARK  221  A    between atoms: _572  and  _575
REMARK  222  A    between atoms: _575  and  _576
REMARK  223  A    between atoms: _581  and  _583
REMARK  224  A    between atoms: _583  and  _584
REMARK  225  A    between atoms: _583  and  _586
REMARK  226  A    between atoms: _586  and  _587
REMARK  227  A    between atoms: _590  and  _592
REMARK  228  A    between atoms: _592  and  _593
REMARK  229  A    between atoms: _596  and  _598
REMARK  230  A    between atoms: _598  and  _599
REMARK  231  A    between atoms: _598  and  _601
REMARK  232  A    between atoms: _601  and  _602
REMARK  233  A    between atoms: _607  and  _608
REMARK  234  A    between atoms: _610  and  _612
REMARK  235  A    between atoms: _612  and  _613
REMARK  236  A    between atoms: _612  and  _615
REMARK  237  A    between atoms: _615  and  _616
REMARK  238  A    between atoms: _621  and  _622
REMARK  239  A    between atoms: _624  and  _626
REMARK  240  A    between atoms: _626  and  _627
REMARK  241  A    between atoms: _626  and  _629
REMARK  242  A    between atoms: _632  and  _634
REMARK  243  A    between atoms: _634  and  _635
REMARK  244  A    between atoms: _634  and  _637
REMARK  245  A    between atoms: _637  and  _638
REMARK  246  A    between atoms: _643  and  _645
REMARK  247  A    between atoms: _645  and  _646
REMARK  248  A    between atoms: _649  and  _651
REMARK  249  A    between atoms: _651  and  _652
REMARK  250  A    between atoms: _651  and  _654
REMARK  251  A    between atoms: _654  and  _655
REMARK  252  A    between atoms: _655  and  _656
REMARK  253  A    between atoms: _656  and  _657
REMARK  254  A    between atoms: _666  and  _668
REMARK  255  A    between atoms: _668  and  _669
REMARK  256  A    between atoms: _668  and  _671
REMARK  257  A    between atoms: _671  and  _672
REMARK  258  A    between atoms: _675  and  _677
REMARK  259  A    between atoms: _677  and  _678
REMARK  260  A    between atoms: _677  and  _680
REMARK  261  A    between atoms: _680  and  _681
REMARK  262  A    between atoms: _684  and  _686
REMARK  263  A    between atoms: _686  and  _687
REMARK  264  A    between atoms: _686  and  _689
REMARK  265  A    between atoms: _689  and  _690
REMARK                            x       y       z     vdW  Elec       q    Type
REMARK                         _______ _______ _______ _____ _____    ______ ____
ROOT
ATOM      1  CA  ASN A   3      11.336  21.836  24.540  0.00  0.00    +0.158 C 
ENDROOT
BRANCH   1   3
ATOM      2  C   ASN A   2      11.174  21.611  22.123  0.00  0.00    +0.241 C 
ATOM      3  N   ASN A   3      11.923  21.859  23.204  0.00  0.00    -0.297 N 
ATOM      4  H   ASN A   3      12.935  22.071  23.091  0.00  0.00    +0.150 HD
ATOM      5  O   ASN A   2       9.951  21.457  22.205  0.00  0.00    -0.273 OA
BRANCH   2   6
ATOM      6  CA  ASN A   2      11.833  21.527  20.750  0.00  0.00    +0.158 C 
BRANCH   6   8
ATOM      7  C   SER A   1      13.882  22.866  20.771  0.00  0.00    +0.241 C 
ATOM      8  N   ASN A   2      13.283  21.673  20.857  0.00  0.00    -0.297 N 
ATOM      9  H   ASN A   2      13.866  20.825  21.004  0.00  0.00    +0.150 HD
ATOM     10  O   SER A   1      13.212  23.874  20.513  0.00  0.00    -0.274 OA
BRANCH   7  11
ATOM     11  CA  SER A   1      15.388  22.985  20.932  0.00  0.00    +0.174 C 
BRANCH  11  12
ATOM     12  N   SER A   1      15.945  21.806  21.582  0.00  0.00    -0.236 NA
ATOM     13  H   SER A   1      16.579  21.172  21.055  0.00  0.00    +0.142 HD
ENDBRANCH  11  12
BRANCH  11  14
ATOM     14  CB  SER A   1      16.077  23.183  19.563  0.00  0.00    +0.163 C 
BRANCH  14  15
ATOM     15  OG  SER A   1      15.779  22.056  18.737  0.00  0.00    -0.380 OA
ATOM     16  H   SER A   1      14.799  21.987  18.615  0.00  0.00    +0.211 HD
ENDBRANCH  14  15
ENDBRANCH  11  14
ENDBRANCH   7  11
ENDBRANCH   6   8
BRANCH   6  17
ATOM     17  CB  ASN A   2      11.518  20.145  20.163  0.00  0.00    +0.114 C 
BRANCH  17  18
ATOM     18  CG  ASN A   2      12.066  19.948  18.761  0.00  0.00    +0.222 C 
ATOM     19  OD1 ASN A   2      12.962  19.134  18.521  0.00  0.00    -0.275 OA
ATOM     20  ND2 ASN A   2      11.543  20.671  17.779  0.00  0.00    -0.329 N 
ATOM     21 HD21 ASN A   2      10.788  21.356  17.983  0.00  0.00    +0.145 HD
ATOM     22 HD22 ASN A   2      11.888  20.552  16.805  0.00  0.00    +0.145 HD
ENDBRANCH  17  18
ENDBRANCH   6  17
ENDBRANCH   2   6
ENDBRANCH   1   3
BRANCH   1  23
ATOM     23  C   ASN A   3      10.613  23.128  24.913  0.00  0.00    +0.241 C 
ATOM     24  O   ASN A   3      11.191  24.066  25.458  0.00  0.00    -0.273 OA
ATOM     25  N   THR A   4       9.333  23.216  24.511  0.00  0.00    -0.295 N 
ATOM     26  H   THR A   4       8.889  22.434  23.988  0.00  0.00    +0.150 HD
BRANCH  25  27
ATOM     27  CA  THR A   4       8.570  24.436  24.822  0.00  0.00    +0.176 C 
BRANCH  27  28
ATOM     28  C   THR A   4       7.817  24.246  26.115  0.00  0.00    +0.243 C 
ATOM     29  N   ALA A   5       7.983  23.083  26.772  0.00  0.00    -0.298 N 
ATOM     30  H   ALA A   5       8.527  22.306  26.345  0.00  0.00    +0.150 HD
ATOM     31  O   THR A   4       7.091  25.155  26.564  0.00  0.00    -0.273 OA
BRANCH  29  32
ATOM     32  CA  ALA A   5       7.385  22.932  28.096  0.00  0.00    +0.137 C 
ATOM     33  CB  ALA A   5       7.240  21.499  28.575  0.00  0.00    +0.030 C 
BRANCH  32  34
ATOM     34  C   ALA A   5       8.327  23.667  29.069  0.00  0.00    +0.227 C 
ATOM     35  O   ALA A   5       7.963  23.949  30.206  0.00  0.00    -0.286 OA
ENDBRANCH  32  34
ENDBRANCH  29  32
ENDBRANCH  27  28
BRANCH  27  36
ATOM     36  CB  THR A   4       7.639  24.852  23.676  0.00  0.00    +0.137 C 
ATOM     37  CG2 THR A   4       8.482  25.344  22.499  0.00  0.00    +0.034 C 
BRANCH  36  38
ATOM     38  OG1 THR A   4       6.917  23.707  23.213  0.00  0.00    -0.382 OA
ATOM     39  HG1 THR A   4       6.381  23.333  23.957  0.00  0.00    +0.210 HD
ENDBRANCH  36  38
ENDBRANCH  27  36
ENDBRANCH  25  27
ENDBRANCH   1  23
BRANCH   1  40
ATOM     40  CB  ASN A   3      12.408  21.493  25.590  0.00  0.00    +0.114 C 
BRANCH  40  41
ATOM     41  CG  ASN A   3      11.887  21.196  26.968  0.00  0.00    +0.222 C 
ATOM     42  ND2 ASN A   3      12.635  20.356  27.713  0.00  0.00    -0.329 N 
ATOM     43 HD21 ASN A   3      12.318  20.084  28.666  0.00  0.00    +0.145 HD
ATOM     44 HD22 ASN A   3      13.528  19.981  27.335  0.00  0.00    +0.145 HD
ATOM     45  OD1 ASN A   3      10.826  21.645  27.411  0.00  0.00    -0.275 OA
ENDBRANCH  40  41
ENDBRANCH   1  40
TORSDOF 18
REMARK  Name = ../refined-set-2016/1b2h/1b2h_pocket.pdb
REMARK  265 active torsions:
REMARK  status: ('A' for Active; 'I' for Inactive)
REMARK    1  A    between atoms: _1  and  _3
REMARK    2  A    between atoms: _3  and  _4
REMARK    3  A    between atoms: _3  and  _6
REMARK    4  A    between atoms: _6  and  _7
REMARK    5  A    between atoms: _12  and  _14
REMARK    6  A    between atoms: _14  and  _15
REMARK    7  A    between atoms: _17  and  _19
REMARK    8  A    between atoms: _19  and  _20
REMARK    9  A    between atoms: _19  and  _22
REMARK   10  A    between atoms: _22  and  _23
REMARK   11  A    between atoms: _25  and  _27
REMARK   12  A    between atoms: _27  and  _28
REMARK   13  A    between atoms: _27  and  _30
REMARK   14  A    between atoms: _30  and  _31
REMARK   15  A    between atoms: _31  and  _32
REMARK   16  A    between atoms: _37  and  _39
REMARK   17  A    between atoms: _39  and  _40
REMARK   18  A    between atoms: _39  and  _42
REMARK   19  A    between atoms: _42  and  _43
REMARK   20  A    between atoms: _46  and  _48
REMARK   21  A    between atoms: _48  and  _49
REMARK   22  A    between atoms: _48  and  _51
REMARK   23  A    between atoms: _52  and  _53
REMARK   24  A    between atoms: _56  and  _58
REMARK   25  A    between atoms: _58  and  _59
REMARK   26  A    between atoms: _61  and  _63
REMARK   27  A    between atoms: _63  and  _64
REMARK   28  A    between atoms: _63  and  _66
REMARK   29  A    between atoms: _70  and  _71
REMARK   30  A    between atoms: _76  and  _78
REMARK   31  A    between atoms: _78  and  _79
REMARK   32  A    between atoms: _78  and  _81
REMARK   33  A    between atoms: _81  and  _82
REMARK   34  A    between atoms: _82  and  _83
REMARK   35  A    between atoms: _86  and  _88
REMARK   36  A    between atoms: _88  and  _89
REMARK   37  A    between atoms: _88  and  _91
REMARK   38  A    between atoms: _91  and  _92
REMARK   39  A    between atoms: _94  and  _96
REMARK   40  A    between atoms: _96  and  _97
REMARK   41  A    between atoms: _96  and  _99
REMARK   42  A    between atoms: _99  and  _100
REMARK   43  A    between atoms: _105  and  _107
REMARK   44  A    between atoms: _107  and  _108
REMARK   45  A    between atoms: _107  and  _110
REMARK   46  A    between atoms: _110  and  _111
REMARK   47  A    between atoms: _111  and  _112
REMARK   48  A    between atoms: _112  and  _113
REMARK   49  A    between atoms: _123  and  _124
REMARK   50  A    between atoms: _129  and  _131
REMARK   51  A    between atoms: _131  and  _132
REMARK   52  A    between atoms: _131  and  _134
REMARK   53  A    between atoms: _134  and  _135
REMARK   54  A    between atoms: _140  and  _141
REMARK   55  A    between atoms: _143  and  _145
REMARK   56  A    between atoms: _145  and  _146
REMARK   57  A    between atoms: _145  and  _148
REMARK   58  A    between atoms: _148  and  _149
REMARK   59  A    between atoms: _154  and  _155
REMARK   60  A    between atoms: _157  and  _159
REMARK   61  A    between atoms: _159  and  _160
REMARK   62  A    between atoms: _159  and  _162
REMARK   63  A    between atoms: _165  and  _167
REMARK   64  A    between atoms: _167  and  _168
REMARK   65  A    between atoms: _167  and  _170
REMARK   66  A    between atoms: _170  and  _171
REMARK   67  A    between atoms: _177  and  _178
REMARK   68  A    between atoms: _183  and  _185
REMARK   69  A    between atoms: _185  and  _186
REMARK   70  A    between atoms: _185  and  _188
REMARK   71  A    between atoms: _188  and  _189
REMARK   72  A    between atoms: _191  and  _193
REMARK   73  A    between atoms: _193  and  _194
REMARK   74  A    between atoms: _193  and  _196
REMARK   75  A    between atoms: _196  and  _197
REMARK   76  A    between atoms: _197  and  _198
REMARK   77  A    between atoms: _201  and  _203
REMARK   78  A    between atoms: _203  and  _204
REMARK   79  A    between atoms: _203  and  _206
REMARK   80  A    between atoms: _206  and  _207
REMARK   81  A    between atoms: _212  and  _213
REMARK   82  A    between atoms: _215  and  _217
REMARK   83  A    between atoms: _217  and  _218
REMARK   84  A    between atoms: _217  and  _220
REMARK   85  A    between atoms: _220  and  _221
REMARK   86  A    between atoms: _226  and  _228
REMARK   87  A    between atoms: _228  and  _229
REMARK   88  A    between atoms: _228  and  _231
REMARK   89  A    between atoms: _231  and  _232
REMARK   90  A    between atoms: _237  and  _239
REMARK   91  A    between atoms: _239  and  _240
REMARK   92  A    between atoms: _239  and  _242
REMARK   93  A    between atoms: _242  and  _243
REMARK   94  A    between atoms: _243  and  _244
REMARK   95  A    between atoms: _246  and  _248
REMARK   96  A    between atoms: _248  and  _249
REMARK   97  A    between atoms: _248  and  _251
REMARK   98  A    between atoms: _251  and  _252
REMARK   99  A    between atoms: _257  and  _258
REMARK  100  A    between atoms: _260  and  _262
REMARK  101  A    between atoms: _262  and  _263
REMARK  102  A    between atoms: _262  and  _265
REMARK  103  A    between atoms: _265  and  _266
REMARK  104  A    between atoms: _269  and  _271
REMARK  105  A    between atoms: _271  and  _272
REMARK  106  A    between atoms: _271  and  _274
REMARK  107  A    between atoms: _274  and  _275
REMARK  108  A    between atoms: _275  and  _492
REMARK  109  A    between atoms: _276  and  _278
REMARK  110  A    between atoms: _278  and  _279
REMARK  111  A    between atoms: _278  and  _281
REMARK  112  A    between atoms: _281  and  _282
REMARK  113  A    between atoms: _285  and  _287
REMARK  114  A    between atoms: _287  and  _288
REMARK  115  A    between atoms: _287  and  _290
REMARK  116  A    between atoms: _290  and  _291
REMARK  117  A    between atoms: _296  and  _297
REMARK  118  A    between atoms: _299  and  _301
REMARK  119  A    between atoms: _301  and  _302
REMARK  120  A    between atoms: _301  and  _304
REMARK  121  A    between atoms: _304  and  _305
REMARK  122  A    between atoms: _310  and  _311
REMARK  123  A    between atoms: _313  and  _315
REMARK  124  A    between atoms: _315  and  _316
REMARK  125  A    between atoms: _315  and  _318
REMARK  126  A    between atoms: _318  and  _319
REMARK  127  A    between atoms: _319  and  _320
REMARK  128  A    between atoms: _323  and  _325
REMARK  129  A    between atoms: _325  and  _326
REMARK  130  A    between atoms: _325  and  _328
REMARK  131  A    between atoms: _328  and  _329
REMARK  132  A    between atoms: _334  and  _335
REMARK  133  A    between atoms: _337  and  _339
REMARK  134  A    between atoms: _339  and  _340
REMARK  135  A    between atoms: _339  and  _342
REMARK  136  A    between atoms: _342  and  _343
REMARK  137  A    between atoms: _348  and  _350
REMARK  138  A    between atoms: _350  and  _351
REMARK  139  A    between atoms: _350  and  _353
REMARK  140  A    between atoms: _353  and  _354
REMARK  141  A    between atoms: _357  and  _359
REMARK  142  A    between atoms: _359  and  _360
REMARK  143  A    between atoms: _359  and  _362
REMARK  144  A    between atoms: _362  and  _363
REMARK  145  A    between atoms: _368  and  _370
REMARK  146  A    between atoms: _370  and  _371
REMARK  147  A    between atoms: _370  and  _373
REMARK  148  A    between atoms: _373  and  _374
REMARK  149  A    between atoms: _384  and  _386
REMARK  150  A    between atoms: _386  and  _387
REMARK  151  A    between atoms: _386  and  _389
REMARK  152  A    between atoms: _389  and  _390
REMARK  153  A    between atoms: _396  and  _398
REMARK  154  A    between atoms: _398  and  _399
REMARK  155  A    between atoms: _398  and  _401
REMARK  156  A    between atoms: _401  and  _402
REMARK  157  A    between atoms: _405  and  _407
REMARK  158  A    between atoms: _407  and  _408
REMARK  159  A    between atoms: _407  and  _410
REMARK  160  A    between atoms: _410  and  _411
REMARK  161  A    between atoms: _414  and  _416
REMARK  162  A    between atoms: _416  and  _417
REMARK  163  A    between atoms: _416  and  _419
REMARK  164  A    between atoms: _419  and  _420
REMARK  165  A    between atoms: _420  and  _421
REMARK  166  A    between atoms: _421  and  _422
REMARK  167  A    between atoms: _431  and  _433
REMARK  168  A    between atoms: _433  and  _434
REMARK  169  A    between atoms: _433  and  _436
REMARK  170  A    between atoms: _436  and  _437
REMARK  171  A    between atoms: _442  and  _444
REMARK  172  A    between atoms: _444  and  _445
REMARK  173  A    between atoms: _444  and  _447
REMARK  174  A    between atoms: _447  and  _448
REMARK  175  A    between atoms: _449  and  _450
REMARK  176  A    between atoms: _459  and  _461
REMARK  177  A    between atoms: _461  and  _462
REMARK  178  A    between atoms: _465  and  _467
REMARK  179  A    between atoms: _467  and  _468
REMARK  180  A    between atoms: _470  and  _472
REMARK  181  A    between atoms: _472  and  _473
REMARK  182  A    between atoms: _472  and  _475
REMARK  183  A    between atoms: _475  and  _476
REMARK  184  A    between atoms: _486  and  _488
REMARK  185  A    between atoms: _488  and  _489
REMARK  186  A    between atoms: _488  and  _491
REMARK  187  A    between atoms: _491  and  _492
REMARK  188  A    between atoms: _493  and  _495
REMARK  189  A    between atoms: _495  and  _496
REMARK  190  A    between atoms: _499  and  _501
REMARK  191  A    between atoms: _501  and  _502
REMARK  192  A    between atoms: _501  and  _504
REMARK  193  A    between atoms: _504  and  _505
REMARK  194  A    between atoms: _508  and  _510
REMARK  195  A    between atoms: _510  and  _511
REMARK  196  A    between atoms: _510  and  _513
REMARK  197  A    between atoms: _513  and  _514
REMARK  198  A    between atoms: _519  and  _520
REMARK  199  A    between atoms: _522  and  _524
REMARK  200  A    between atoms: _524  and  _525
REMARK  201  A    between atoms: _524  and  _527
REMARK  202  A    between atoms: _527  and  _528
REMARK  203  A    between atoms: _530  and  _532
REMARK  204  A    between atoms: _532  and  _533
REMARK  205  A    between atoms: _532  and  _535
REMARK  206  A    between atoms: _535  and  _536
REMARK  207  A    between atoms: _542  and  _544
REMARK  208  A    between atoms: _544  and  _545
REMARK  209  A    between atoms: _544  and  _547
REMARK  210  A    between atoms: _547  and  _548
REMARK  211  A    between atoms: _551  and  _553
REMARK  212  A    between atoms: _553  and  _554
REMARK  213  A    between atoms: _553  and  _556
REMARK  214  A    between atoms: _556  and  _557
REMARK  215  A    between atoms: _559  and  _561
REMARK  216  A    between atoms: _561  and  _562
REMARK  217  A    between atoms: _561  and  _564
REMARK  218  A    between atoms: _564  and  _565
REMARK  219  A    between atoms: _570  and  _572
REMARK  220  A    between atoms: _572  and  _573
REMARK  221  A    between atoms: _572  and  _575
REMARK  222  A    between atoms: _575  and  _576
REMARK  223  A    between atoms: _581  and  _583
REMARK  224  A    between atoms: _583  and  _584
REMARK  225  A    between atoms: _583  and  _586
REMARK  226  A    between atoms: _586  and  _587
REMARK  227  A    between atoms: _590  and  _592
REMARK  228  A    between atoms: _592  and  _593
REMARK  229  A    between atoms: _596  and  _598
REMARK  230  A    between atoms: _598  and  _599
REMARK  231  A    between atoms: _598  and  _601
REMARK  232  A    between atoms: _601  and  _602
REMARK  233  A    between atoms: _607  and  _608
REMARK  234  A    between atoms: _610  and  _612
REMARK  235  A    between atoms: _612  and  _613
REMARK  236  A    between atoms: _612  and  _615
REMARK  237  A    between atoms: _615  and  _616
REMARK  238  A    between atoms: _621  and  _622
REMARK  239  A    between atoms: _624  and  _626
REMARK  240  A    between atoms: _626  and  _627
REMARK  241  A    between atoms: _626  and  _629
REMARK  242  A    between atoms: _632  and  _634
REMARK  243  A    between atoms: _634  and  _635
REMARK  244  A    between atoms: _634  and  _637
REMARK  245  A    between atoms: _637  and  _638
REMARK  246  A    between atoms: _643  and  _645
REMARK  247  A    between atoms: _645  and  _646
REMARK  248  A    between atoms: _649  and  _651
REMARK  249  A    between atoms: _651  and  _652
REMARK  250  A    between atoms: _651  and  _654
REMARK  251  A    between atoms: _654  and  _655
REMARK  252  A    between atoms: _655  and  _656
REMARK  253  A    between atoms: _656  and  _657
REMARK  254  A    between atoms: _666  and  _668
REMARK  255  A    between atoms: _668  and  _669
REMARK  256  A    between atoms: _668  and  _671
REMARK  257  A    between atoms: _671  and  _672
REMARK  258  A    between atoms: _675  and  _677
REMARK  259  A    between atoms: _677  and  _678
REMARK  260  A    between atoms: _677  and  _680
REMARK  261  A    between atoms: _680  and  _681
REMARK  262  A    between atoms: _684  and  _686
REMARK  263  A    between atoms: _686  and  _687
REMARK  264  A    between atoms: _686  and  _689
REMARK  265  A    between atoms: _689  and  _690
REMARK                            x       y       z     vdW  Elec       q    Type
REMARK                         _______ _______ _______ _____ _____    ______ ____
ROOT
ATOM      1  CG  TYR A   1      -7.417  13.681  22.618  0.00  0.00    -0.020 A 
ATOM      2  CD2 TYR A   1      -8.234  14.740  23.009  0.00  0.00    -0.001 A 
ATOM      3  CE2 TYR A   1      -8.502  15.796  22.160  0.00  0.00    +0.036 A 
ATOM      4  CZ  TYR A   1      -7.943  15.809  20.903  0.00  0.00    +0.134 A 
ATOM      5  CE1 TYR A   1      -7.144  14.772  20.474  0.00  0.00    +0.036 A 
ATOM      6  CD1 TYR A   1      -6.889  13.717  21.345  0.00  0.00    -0.001 A 
ENDROOT
BRANCH   4   7
ATOM      7  OH  TYR A   1      -8.229  16.869  20.083  0.00  0.00    -0.506 OA
ATOM      8  HH  TYR A   1      -7.764  16.750  19.217  0.00  0.00    +0.292 HD
ENDBRANCH   4   7
BRANCH   1   9
ATOM      9  CB  TYR A   1      -7.203  12.529  23.571  0.00  0.00    +0.051 C 
BRANCH   9  10
ATOM     10  CA  TYR A   1      -5.860  12.381  24.265  0.00  0.00    +0.137 C 
BRANCH  10  11
ATOM     11  N   TYR A   1      -5.474  13.558  25.018  0.00  0.00    -0.239 NA
ATOM     12  H   TYR A   1      -4.862  14.280  24.587  0.00  0.00    +0.142 HD
ENDBRANCH  10  11
BRANCH  10  13
ATOM     13  C   TYR A   1      -4.812  12.028  23.196  0.00  0.00    +0.224 C 
ATOM     14  O   TYR A   1      -3.997  12.880  22.850  0.00  0.00    -0.287 OA
ENDBRANCH  10  13
ENDBRANCH   9  10
ENDBRANCH   1   9
TORSDOF 5
REMARK  Name = ../refined-set-2016/1b2h/1b2h_pocket.pdb
REMARK  265 active torsions:
REMARK  status: ('A' for Active; 'I' for Inactive)
REMARK    1  A    between atoms: _1  and  _3
REMARK    2  A    between atoms: _3  and  _4
REMARK    3  A    between atoms: _3  and  _6
REMARK    4  A    between atoms: _6  and  _7
REMARK    5  A    between atoms: _12  and  _14
REMARK    6  A    between atoms: _14  and  _15
REMARK    7  A    between atoms: _17  and  _19
REMARK    8  A    between atoms: _19  and  _20
REMARK    9  A    between atoms: _19  and  _22
REMARK   10  A    between atoms: _22  and  _23
REMARK   11  A    between atoms: _25  and  _27
REMARK   12  A    between atoms: _27  and  _28
REMARK   13  A    between atoms: _27  and  _30
REMARK   14  A    between atoms: _30  and  _31
REMARK   15  A    between atoms: _31  and  _32
REMARK   16  A    between atoms: _37  and  _39
REMARK   17  A    between atoms: _39  and  _40
REMARK   18  A    between atoms: _39  and  _42
REMARK   19  A    between atoms: _42  and  _43
REMARK   20  A    between atoms: _46  and  _48
REMARK   21  A    between atoms: _48  and  _49
REMARK   22  A    between atoms: _48  and  _51
REMARK   23  A    between atoms: _52  and  _53
REMARK   24  A    between atoms: _56  and  _58
REMARK   25  A    between atoms: _58  and  _59
REMARK   26  A    between atoms: _61  and  _63
REMARK   27  A    between atoms: _63  and  _64
REMARK   28  A    between atoms: _63  and  _66
REMARK   29  A    between atoms: _70  and  _71
REMARK   30  A    between atoms: _76  and  _78
REMARK   31  A    between atoms: _78  and  _79
REMARK   32  A    between atoms: _78  and  _81
REMARK   33  A    between atoms: _81  and  _82
REMARK   34  A    between atoms: _82  and  _83
REMARK   35  A    between atoms: _86  and  _88
REMARK   36  A    between atoms: _88  and  _89
REMARK   37  A    between atoms: _88  and  _91
REMARK   38  A    between atoms: _91  and  _92
REMARK   39  A    between atoms: _94  and  _96
REMARK   40  A    between atoms: _96  and  _97
REMARK   41  A    between atoms: _96  and  _99
REMARK   42  A    between atoms: _99  and  _100
REMARK   43  A    between atoms: _105  and  _107
REMARK   44  A    between atoms: _107  and  _108
REMARK   45  A    between atoms: _107  and  _110
REMARK   46  A    between atoms: _110  and  _111
REMARK   47  A    between atoms: _111  and  _112
REMARK   48  A    between atoms: _112  and  _113
REMARK   49  A    between atoms: _123  and  _124
REMARK   50  A    between atoms: _129  and  _131
REMARK   51  A    between atoms: _131  and  _132
REMARK   52  A    between atoms: _131  and  _134
REMARK   53  A    between atoms: _134  and  _135
REMARK   54  A    between atoms: _140  and  _141
REMARK   55  A    between atoms: _143  and  _145
REMARK   56  A    between atoms: _145  and  _146
REMARK   57  A    between atoms: _145  and  _148
REMARK   58  A    between atoms: _148  and  _149
REMARK   59  A    between atoms: _154  and  _155
REMARK   60  A    between atoms: _157  and  _159
REMARK   61  A    between atoms: _159  and  _160
REMARK   62  A    between atoms: _159  and  _162
REMARK   63  A    between atoms: _165  and  _167
REMARK   64  A    between atoms: _167  and  _168
REMARK   65  A    between atoms: _167  and  _170
REMARK   66  A    between atoms: _170  and  _171
REMARK   67  A    between atoms: _177  and  _178
REMARK   68  A    between atoms: _183  and  _185
REMARK   69  A    between atoms: _185  and  _186
REMARK   70  A    between atoms: _185  and  _188
REMARK   71  A    between atoms: _188  and  _189
REMARK   72  A    between atoms: _191  and  _193
REMARK   73  A    between atoms: _193  and  _194
REMARK   74  A    between atoms: _193  and  _196
REMARK   75  A    between atoms: _196  and  _197
REMARK   76  A    between atoms: _197  and  _198
REMARK   77  A    between atoms: _201  and  _203
REMARK   78  A    between atoms: _203  and  _204
REMARK   79  A    between atoms: _203  and  _206
REMARK   80  A    between atoms: _206  and  _207
REMARK   81  A    between atoms: _212  and  _213
REMARK   82  A    between atoms: _215  and  _217
REMARK   83  A    between atoms: _217  and  _218
REMARK   84  A    between atoms: _217  and  _220
REMARK   85  A    between atoms: _220  and  _221
REMARK   86  A    between atoms: _226  and  _228
REMARK   87  A    between atoms: _228  and  _229
REMARK   88  A    between atoms: _228  and  _231
REMARK   89  A    between atoms: _231  and  _232
REMARK   90  A    between atoms: _237  and  _239
REMARK   91  A    between atoms: _239  and  _240
REMARK   92  A    between atoms: _239  and  _242
REMARK   93  A    between atoms: _242  and  _243
REMARK   94  A    between atoms: _243  and  _244
REMARK   95  A    between atoms: _246  and  _248
REMARK   96  A    between atoms: _248  and  _249
REMARK   97  A    between atoms: _248  and  _251
REMARK   98  A    between atoms: _251  and  _252
REMARK   99  A    between atoms: _257  and  _258
REMARK  100  A    between atoms: _260  and  _262
REMARK  101  A    between atoms: _262  and  _263
REMARK  102  A    between atoms: _262  and  _265
REMARK  103  A    between atoms: _265  and  _266
REMARK  104  A    between atoms: _269  and  _271
REMARK  105  A    between atoms: _271  and  _272
REMARK  106  A    between atoms: _271  and  _274
REMARK  107  A    between atoms: _274  and  _275
REMARK  108  A    between atoms: _275  and  _492
REMARK  109  A    between atoms: _276  and  _278
REMARK  110  A    between atoms: _278  and  _279
REMARK  111  A    between atoms: _278  and  _281
REMARK  112  A    between atoms: _281  and  _282
REMARK  113  A    between atoms: _285  and  _287
REMARK  114  A    between atoms: _287  and  _288
REMARK  115  A    between atoms: _287  and  _290
REMARK  116  A    between atoms: _290  and  _291
REMARK  117  A    between atoms: _296  and  _297
REMARK  118  A    between atoms: _299  and  _301
REMARK  119  A    between atoms: _301  and  _302
REMARK  120  A    between atoms: _301  and  _304
REMARK  121  A    between atoms: _304  and  _305
REMARK  122  A    between atoms: _310  and  _311
REMARK  123  A    between atoms: _313  and  _315
REMARK  124  A    between atoms: _315  and  _316
REMARK  125  A    between atoms: _315  and  _318
REMARK  126  A    between atoms: _318  and  _319
REMARK  127  A    between atoms: _319  and  _320
REMARK  128  A    between atoms: _323  and  _325
REMARK  129  A    between atoms: _325  and  _326
REMARK  130  A    between atoms: _325  and  _328
REMARK  131  A    between atoms: _328  and  _329
REMARK  132  A    between atoms: _334  and  _335
REMARK  133  A    between atoms: _337  and  _339
REMARK  134  A    between atoms: _339  and  _340
REMARK  135  A    between atoms: _339  and  _342
REMARK  136  A    between atoms: _342  and  _343
REMARK  137  A    between atoms: _348  and  _350
REMARK  138  A    between atoms: _350  and  _351
REMARK  139  A    between atoms: _350  and  _353
REMARK  140  A    between atoms: _353  and  _354
REMARK  141  A    between atoms: _357  and  _359
REMARK  142  A    between atoms: _359  and  _360
REMARK  143  A    between atoms: _359  and  _362
REMARK  144  A    between atoms: _362  and  _363
REMARK  145  A    between atoms: _368  and  _370
REMARK  146  A    between atoms: _370  and  _371
REMARK  147  A    between atoms: _370  and  _373
REMARK  148  A    between atoms: _373  and  _374
REMARK  149  A    between atoms: _384  and  _386
REMARK  150  A    between atoms: _386  and  _387
REMARK  151  A    between atoms: _386  and  _389
REMARK  152  A    between atoms: _389  and  _390
REMARK  153  A    between atoms: _396  and  _398
REMARK  154  A    between atoms: _398  and  _399
REMARK  155  A    between atoms: _398  and  _401
REMARK  156  A    between atoms: _401  and  _402
REMARK  157  A    between atoms: _405  and  _407
REMARK  158  A    between atoms: _407  and  _408
REMARK  159  A    between atoms: _407  and  _410
REMARK  160  A    between atoms: _410  and  _411
REMARK  161  A    between atoms: _414  and  _416
REMARK  162  A    between atoms: _416  and  _417
REMARK  163  A    between atoms: _416  and  _419
REMARK  164  A    between atoms: _419  and  _420
REMARK  165  A    between atoms: _420  and  _421
REMARK  166  A    between atoms: _421  and  _422
REMARK  167  A    between atoms: _431  and  _433
REMARK  168  A    between atoms: _433  and  _434
REMARK  169  A    between atoms: _433  and  _436
REMARK  170  A    between atoms: _436  and  _437
REMARK  171  A    between atoms: _442  and  _444
REMARK  172  A    between atoms: _444  and  _445
REMARK  173  A    between atoms: _444  and  _447
REMARK  174  A    between atoms: _447  and  _448
REMARK  175  A    between atoms: _449  and  _450
REMARK  176  A    between atoms: _459  and  _461
REMARK  177  A    between atoms: _461  and  _462
REMARK  178  A    between atoms: _465  and  _467
REMARK  179  A    between atoms: _467  and  _468
REMARK  180  A    between atoms: _470  and  _472
REMARK  181  A    between atoms: _472  and  _473
REMARK  182  A    between atoms: _472  and  _475
REMARK  183  A    between atoms: _475  and  _476
REMARK  184  A    between atoms: _486  and  _488
REMARK  185  A    between atoms: _488  and  _489
REMARK  186  A    between atoms: _488  and  _491
REMARK  187  A    between atoms: _491  and  _492
REMARK  188  A    between atoms: _493  and  _495
REMARK  189  A    between atoms: _495  and  _496
REMARK  190  A    between atoms: _499  and  _501
REMARK  191  A    between atoms: _501  and  _502
REMARK  192  A    between atoms: _501  and  _504
REMARK  193  A    between atoms: _504  and  _505
REMARK  194  A    between atoms: _508  and  _510
REMARK  195  A    between atoms: _510  and  _511
REMARK  196  A    between atoms: _510  and  _513
REMARK  197  A    between atoms: _513  and  _514
REMARK  198  A    between atoms: _519  and  _520
REMARK  199  A    between atoms: _522  and  _524
REMARK  200  A    between atoms: _524  and  _525
REMARK  201  A    between atoms: _524  and  _527
REMARK  202  A    between atoms: _527  and  _528
REMARK  203  A    between atoms: _530  and  _532
REMARK  204  A    between atoms: _532  and  _533
REMARK  205  A    between atoms: _532  and  _535
REMARK  206  A    between atoms: _535  and  _536
REMARK  207  A    between atoms: _542  and  _544
REMARK  208  A    between atoms: _544  and  _545
REMARK  209  A    between atoms: _544  and  _547
REMARK  210  A    between atoms: _547  and  _548
REMARK  211  A    between atoms: _551  and  _553
REMARK  212  A    between atoms: _553  and  _554
REMARK  213  A    between atoms: _553  and  _556
REMARK  214  A    between atoms: _556  and  _557
REMARK  215  A    between atoms: _559  and  _561
REMARK  216  A    between atoms: _561  and  _562
REMARK  217  A    between atoms: _561  and  _564
REMARK  218  A    between atoms: _564  and  _565
REMARK  219  A    between atoms: _570  and  _572
REMARK  220  A    between atoms: _572  and  _573
REMARK  221  A    between atoms: _572  and  _575
REMARK  222  A    between atoms: _575  and  _576
REMARK  223  A    between atoms: _581  and  _583
REMARK  224  A    between atoms: _583  and  _584
REMARK  225  A    between atoms: _583  and  _586
REMARK  226  A    between atoms: _586  and  _587
REMARK  227  A    between atoms: _590  and  _592
REMARK  228  A    between atoms: _592  and  _593
REMARK  229  A    between atoms: _596  and  _598
REMARK  230  A    between atoms: _598  and  _599
REMARK  231  A    between atoms: _598  and  _601
REMARK  232  A    between atoms: _601  and  _602
REMARK  233  A    between atoms: _607  and  _608
REMARK  234  A    between atoms: _610  and  _612
REMARK  235  A    between atoms: _612  and  _613
REMARK  236  A    between atoms: _612  and  _615
REMARK  237  A    between atoms: _615  and  _616
REMARK  238  A    between atoms: _621  and  _622
REMARK  239  A    between atoms: _624  and  _626
REMARK  240  A    between atoms: _626  and  _627
REMARK  241  A    between atoms: _626  and  _629
REMARK  242  A    between atoms: _632  and  _634
REMARK  243  A    between atoms: _634  and  _635
REMARK  244  A    between atoms: _634  and  _637
REMARK  245  A    between atoms: _637  and  _638
REMARK  246  A    between atoms: _643  and  _645
REMARK  247  A    between atoms: _645  and  _646
REMARK  248  A    between atoms: _649  and  _651
REMARK  249  A    between atoms: _651  and  _652
REMARK  250  A    between atoms: _651  and  _654
REMARK  251  A    between atoms: _654  and  _655
REMARK  252  A    between atoms: _655  and  _656
REMARK  253  A    between atoms: _656  and  _657
REMARK  254  A    between atoms: _666  and  _668
REMARK  255  A    between atoms: _668  and  _669
REMARK  256  A    between atoms: _668  and  _671
REMARK  257  A    between atoms: _671  and  _672
REMARK  258  A    between atoms: _675  and  _677
REMARK  259  A    between atoms: _677  and  _678
REMARK  260  A    between atoms: _677  and  _680
REMARK  261  A    between atoms: _680  and  _681
REMARK  262  A    between atoms: _684  and  _686
REMARK  263  A    between atoms: _686  and  _687
REMARK  264  A    between atoms: _686  and  _689
REMARK  265  A    between atoms: _689  and  _690
REMARK                            x       y       z     vdW  Elec       q    Type
REMARK                         _______ _______ _______ _____ _____    ______ ____
ROOT
ATOM      1  CA  ASN A   3      -6.244  11.286  12.031  0.00  0.00    +0.158 C 
ENDROOT
BRANCH   1   4
ATOM      2  C   VAL A   2      -6.739  10.929  14.376  0.00  0.00    +0.241 C 
ATOM      3  O   VAL A   2      -6.831  12.155  14.573  0.00  0.00    -0.273 OA
ATOM      4  N   ASN A   3      -6.423  10.440  13.200  0.00  0.00    -0.297 N 
ATOM      5  H   ASN A   3      -6.296   9.413  13.101  0.00  0.00    +0.150 HD
BRANCH   2   6
ATOM      6  CA  VAL A   2      -6.983   9.921  15.518  0.00  0.00    +0.148 C 
BRANCH   6   9
ATOM      7  C   TYR A   1      -5.553  10.501  17.371  0.00  0.00    +0.239 C 
ATOM      8  O   TYR A   1      -4.799   9.573  17.138  0.00  0.00    -0.274 OA
ATOM      9  N   VAL A   2      -6.698  10.717  16.698  0.00  0.00    -0.297 N 
ATOM     10  H   VAL A   2      -7.369  11.444  17.019  0.00  0.00    +0.150 HD
BRANCH   7  11
ATOM     11  CA  TYR A   1      -5.184  11.673  18.286  0.00  0.00    +0.149 C 
BRANCH  11  12
ATOM     12  N   TYR A   1      -4.372  11.336  19.434  0.00  0.00    -0.238 NA
ATOM     13  H   TYR A   1      -3.378  11.640  19.475  0.00  0.00    +0.142 HD
ENDBRANCH  11  12
BRANCH  11  14
ATOM     14  CB  TYR A   1      -4.439  12.549  17.267  0.00  0.00    +0.053 C 
BRANCH  14  15
ATOM     15  CG  TYR A   1      -4.126  14.000  17.504  0.00  0.00    -0.020 A 
ATOM     16  CD2 TYR A   1      -3.418  14.417  18.601  0.00  0.00    -0.001 A 
ATOM     17  CE2 TYR A   1      -3.109  15.756  18.800  0.00  0.00    +0.036 A 
ATOM     18  CZ  TYR A   1      -3.518  16.677  17.868  0.00  0.00    +0.134 A 
ATOM     19  CE1 TYR A   1      -4.257  16.301  16.772  0.00  0.00    +0.036 A 
ATOM     20  CD1 TYR A   1      -4.557  14.950  16.569  0.00  0.00    -0.001 A 
BRANCH  18  21
ATOM     21  OH  TYR A   1      -3.213  18.001  18.101  0.00  0.00    -0.506 OA
ATOM     22  HH  TYR A   1      -2.691  18.357  17.339  0.00  0.00    +0.292 HD
ENDBRANCH  18  21
ENDBRANCH  14  15
ENDBRANCH  11  14
ENDBRANCH   7  11
ENDBRANCH   6   9
BRANCH   6  23
ATOM     23  CB  VAL A   2      -8.406   9.361  15.347  0.00  0.00    +0.027 C 
ATOM     24  CG2 VAL A   2      -8.572   8.197  16.320  0.00  0.00    +0.002 C 
ATOM     25  CG1 VAL A   2      -9.405  10.488  15.556  0.00  0.00    +0.002 C 
ENDBRANCH   6  23
ENDBRANCH   2   6
ENDBRANCH   1   4
BRANCH   1  26
ATOM     26  C   ASN A   3      -7.565  11.324  11.240  0.00  0.00    +0.241 C 
ATOM     27  N   ALA A   4      -8.383  12.342  11.449  0.00  0.00    -0.297 N 
ATOM     28  H   ALA A   4      -8.082  13.092  12.104  0.00  0.00    +0.150 HD
ATOM     29  O   ASN A   3      -7.726  10.429  10.415  0.00  0.00    -0.273 OA
BRANCH  27  30
ATOM     30  CA  ALA A   4      -9.685  12.465  10.807  0.00  0.00    +0.149 C 
ATOM     31  CB  ALA A   4     -10.754  12.718  11.871  0.00  0.00    +0.031 C 
BRANCH  30  32
ATOM     32  C   ALA A   4      -9.707  13.639   9.831  0.00  0.00    +0.241 C 
ATOM     33  O   ALA A   4      -9.300  14.767  10.153  0.00  0.00    -0.273 OA
ATOM     34  N   ARG A   5     -10.103  13.392   8.596  0.00  0.00    -0.298 N 
ATOM     35  H   ARG A   5     -10.408  12.428   8.351  0.00  0.00    +0.150 HD
BRANCH  34  36
ATOM     36  CA  ARG A   5     -10.128  14.416   7.567  0.00  0.00    +0.137 C 
BRANCH  36  37
ATOM     37  C   ARG A   5     -11.105  13.943   6.485  0.00  0.00    +0.227 C 
ATOM     38  O   ARG A   5     -11.460  12.746   6.489  0.00  0.00    -0.286 OA
ENDBRANCH  36  37
BRANCH  36  39
ATOM     39  CB  ARG A   5      -8.748  14.604   6.905  0.00  0.00    +0.031 C 
BRANCH  39  40
ATOM     40  CG  ARG A   5      -8.132  13.263   6.530  0.00  0.00    +0.045 C 
BRANCH  40  41
ATOM     41  CD  ARG A   5      -7.152  13.318   5.385  0.00  0.00    +0.174 C 
BRANCH  41  42
ATOM     42  NE  ARG A   5      -6.165  14.386   5.498  0.00  0.00    -0.265 N 
ATOM     43  CZ  ARG A   5      -4.937  14.320   5.978  0.00  0.00    +0.342 C 
ATOM     44  NH2 ARG A   5      -4.432  13.193   6.421  0.00  0.00    -0.292 N 
ATOM     45 HH21 ARG A   5      -3.461  13.169   6.794  0.00  0.00    +0.255 HD
ATOM     46 HH22 ARG A   5      -5.002  12.324   6.399  0.00  0.00    +0.255 HD
ATOM     47  NH1 ARG A   5      -4.179  15.406   6.012  0.00  0.00    -0.292 N 
ATOM     48 HH11 ARG A   5      -3.212  15.353   6.390  0.00  0.00    +0.255 HD
ATOM     49 HH12 ARG A   5      -4.551  16.311   5.660  0.00  0.00    +0.255 HD
ATOM     50  HE  ARG A   5      -6.468  15.320   5.156  0.00  0.00    +0.259 HD
ENDBRANCH  41  42
ENDBRANCH  40  41
ENDBRANCH  39  40
ENDBRANCH  36  39
ENDBRANCH  34  36
ENDBRANCH  30  32
ENDBRANCH  27  30
ENDBRANCH   1  26
BRANCH   1  51
ATOM     51  CB  ASN A   3      -5.176  10.667  11.116  0.00  0.00    +0.114 C 
BRANCH  51  52
ATOM     52  CG  ASN A   3      -4.736  11.703  10.068  0.00  0.00    +0.222 C 
ATOM     53  OD1 ASN A   3      -5.331  12.779   9.982  0.00  0.00    -0.275 OA
ATOM     54  ND2 ASN A   3      -3.700  11.352   9.333  0.00  0.00    -0.329 N 
ATOM     55 HD21 ASN A   3      -3.256  10.422   9.471  0.00  0.00    +0.145 HD
ATOM     56 HD22 ASN A   3      -3.327  12.005   8.615  0.00  0.00    +0.145 HD
ENDBRANCH  51  52
ENDBRANCH   1  51
TORSDOF 20
REMARK  Name = ../refined-set-2016/1b2h/1b2h_pocket.pdb
REMARK  265 active torsions:
REMARK  status: ('A' for Active; 'I' for Inactive)
REMARK    1  A    between atoms: _1  and  _3
REMARK    2  A    between atoms: _3  and  _4
REMARK    3  A    between atoms: _3  and  _6
REMARK    4  A    between atoms: _6  and  _7
REMARK    5  A    between atoms: _12  and  _14
REMARK    6  A    between atoms: _14  and  _15
REMARK    7  A    between atoms: _17  and  _19
REMARK    8  A    between atoms: _19  and  _20
REMARK    9  A    between atoms: _19  and  _22
REMARK   10  A    between atoms: _22  and  _23
REMARK   11  A    between atoms: _25  and  _27
REMARK   12  A    between atoms: _27  and  _28
REMARK   13  A    between atoms: _27  and  _30
REMARK   14  A    between atoms: _30  and  _31
REMARK   15  A    between atoms: _31  and  _32
REMARK   16  A    between atoms: _37  and  _39
REMARK   17  A    between atoms: _39  and  _40
REMARK   18  A    between atoms: _39  and  _42
REMARK   19  A    between atoms: _42  and  _43
REMARK   20  A    between atoms: _46  and  _48
REMARK   21  A    between atoms: _48  and  _49
REMARK   22  A    between atoms: _48  and  _51
REMARK   23  A    between atoms: _52  and  _53
REMARK   24  A    between atoms: _56  and  _58
REMARK   25  A    between atoms: _58  and  _59
REMARK   26  A    between atoms: _61  and  _63
REMARK   27  A    between atoms: _63  and  _64
REMARK   28  A    between atoms: _63  and  _66
REMARK   29  A    between atoms: _70  and  _71
REMARK   30  A    between atoms: _76  and  _78
REMARK   31  A    between atoms: _78  and  _79
REMARK   32  A    between atoms: _78  and  _81
REMARK   33  A    between atoms: _81  and  _82
REMARK   34  A    between atoms: _82  and  _83
REMARK   35  A    between atoms: _86  and  _88
REMARK   36  A    between atoms: _88  and  _89
REMARK   37  A    between atoms: _88  and  _91
REMARK   38  A    between atoms: _91  and  _92
REMARK   39  A    between atoms: _94  and  _96
REMARK   40  A    between atoms: _96  and  _97
REMARK   41  A    between atoms: _96  and  _99
REMARK   42  A    between atoms: _99  and  _100
REMARK   43  A    between atoms: _105  and  _107
REMARK   44  A    between atoms: _107  and  _108
REMARK   45  A    between atoms: _107  and  _110
REMARK   46  A    between atoms: _110  and  _111
REMARK   47  A    between atoms: _111  and  _112
REMARK   48  A    between atoms: _112  and  _113
REMARK   49  A    between atoms: _123  and  _124
REMARK   50  A    between atoms: _129  and  _131
REMARK   51  A    between atoms: _131  and  _132
REMARK   52  A    between atoms: _131  and  _134
REMARK   53  A    between atoms: _134  and  _135
REMARK   54  A    between atoms: _140  and  _141
REMARK   55  A    between atoms: _143  and  _145
REMARK   56  A    between atoms: _145  and  _146
REMARK   57  A    between atoms: _145  and  _148
REMARK   58  A    between atoms: _148  and  _149
REMARK   59  A    between atoms: _154  and  _155
REMARK   60  A    between atoms: _157  and  _159
REMARK   61  A    between atoms: _159  and  _160
REMARK   62  A    between atoms: _159  and  _162
REMARK   63  A    between atoms: _165  and  _167
REMARK   64  A    between atoms: _167  and  _168
REMARK   65  A    between atoms: _167  and  _170
REMARK   66  A    between atoms: _170  and  _171
REMARK   67  A    between atoms: _177  and  _178
REMARK   68  A    between atoms: _183  and  _185
REMARK   69  A    between atoms: _185  and  _186
REMARK   70  A    between atoms: _185  and  _188
REMARK   71  A    between atoms: _188  and  _189
REMARK   72  A    between atoms: _191  and  _193
REMARK   73  A    between atoms: _193  and  _194
REMARK   74  A    between atoms: _193  and  _196
REMARK   75  A    between atoms: _196  and  _197
REMARK   76  A    between atoms: _197  and  _198
REMARK   77  A    between atoms: _201  and  _203
REMARK   78  A    between atoms: _203  and  _204
REMARK   79  A    between atoms: _203  and  _206
REMARK   80  A    between atoms: _206  and  _207
REMARK   81  A    between atoms: _212  and  _213
REMARK   82  A    between atoms: _215  and  _217
REMARK   83  A    between atoms: _217  and  _218
REMARK   84  A    between atoms: _217  and  _220
REMARK   85  A    between atoms: _220  and  _221
REMARK   86  A    between atoms: _226  and  _228
REMARK   87  A    between atoms: _228  and  _229
REMARK   88  A    between atoms: _228  and  _231
REMARK   89  A    between atoms: _231  and  _232
REMARK   90  A    between atoms: _237  and  _239
REMARK   91  A    between atoms: _239  and  _240
REMARK   92  A    between atoms: _239  and  _242
REMARK   93  A    between atoms: _242  and  _243
REMARK   94  A    between atoms: _243  and  _244
REMARK   95  A    between atoms: _246  and  _248
REMARK   96  A    between atoms: _248  and  _249
REMARK   97  A    between atoms: _248  and  _251
REMARK   98  A    between atoms: _251  and  _252
REMARK   99  A    between atoms: _257  and  _258
REMARK  100  A    between atoms: _260  and  _262
REMARK  101  A    between atoms: _262  and  _263
REMARK  102  A    between atoms: _262  and  _265
REMARK  103  A    between atoms: _265  and  _266
REMARK  104  A    between atoms: _269  and  _271
REMARK  105  A    between atoms: _271  and  _272
REMARK  106  A    between atoms: _271  and  _274
REMARK  107  A    between atoms: _274  and  _275
REMARK  108  A    between atoms: _275  and  _492
REMARK  109  A    between atoms: _276  and  _278
REMARK  110  A    between atoms: _278  and  _279
REMARK  111  A    between atoms: _278  and  _281
REMARK  112  A    between atoms: _281  and  _282
REMARK  113  A    between atoms: _285  and  _287
REMARK  114  A    between atoms: _287  and  _288
REMARK  115  A    between atoms: _287  and  _290
REMARK  116  A    between atoms: _290  and  _291
REMARK  117  A    between atoms: _296  and  _297
REMARK  118  A    between atoms: _299  and  _301
REMARK  119  A    between atoms: _301  and  _302
REMARK  120  A    between atoms: _301  and  _304
REMARK  121  A    between atoms: _304  and  _305
REMARK  122  A    between atoms: _310  and  _311
REMARK  123  A    between atoms: _313  and  _315
REMARK  124  A    between atoms: _315  and  _316
REMARK  125  A    between atoms: _315  and  _318
REMARK  126  A    between atoms: _318  and  _319
REMARK  127  A    between atoms: _319  and  _320
REMARK  128  A    between atoms: _323  and  _325
REMARK  129  A    between atoms: _325  and  _326
REMARK  130  A    between atoms: _325  and  _328
REMARK  131  A    between atoms: _328  and  _329
REMARK  132  A    between atoms: _334  and  _335
REMARK  133  A    between atoms: _337  and  _339
REMARK  134  A    between atoms: _339  and  _340
REMARK  135  A    between atoms: _339  and  _342
REMARK  136  A    between atoms: _342  and  _343
REMARK  137  A    between atoms: _348  and  _350
REMARK  138  A    between atoms: _350  and  _351
REMARK  139  A    between atoms: _350  and  _353
REMARK  140  A    between atoms: _353  and  _354
REMARK  141  A    between atoms: _357  and  _359
REMARK  142  A    between atoms: _359  and  _360
REMARK  143  A    between atoms: _359  and  _362
REMARK  144  A    between atoms: _362  and  _363
REMARK  145  A    between atoms: _368  and  _370
REMARK  146  A    between atoms: _370  and  _371
REMARK  147  A    between atoms: _370  and  _373
REMARK  148  A    between atoms: _373  and  _374
REMARK  149  A    between atoms: _384  and  _386
REMARK  150  A    between atoms: _386  and  _387
REMARK  151  A    between atoms: _386  and  _389
REMARK  152  A    between atoms: _389  and  _390
REMARK  153  A    between atoms: _396  and  _398
REMARK  154  A    between atoms: _398  and  _399
REMARK  155  A    between atoms: _398  and  _401
REMARK  156  A    between atoms: _401  and  _402
REMARK  157  A    between atoms: _405  and  _407
REMARK  158  A    between atoms: _407  and  _408
REMARK  159  A    between atoms: _407  and  _410
REMARK  160  A    between atoms: _410  and  _411
REMARK  161  A    between atoms: _414  and  _416
REMARK  162  A    between atoms: _416  and  _417
REMARK  163  A    between atoms: _416  and  _419
REMARK  164  A    between atoms: _419  and  _420
REMARK  165  A    between atoms: _420  and  _421
REMARK  166  A    between atoms: _421  and  _422
REMARK  167  A    between atoms: _431  and  _433
REMARK  168  A    between atoms: _433  and  _434
REMARK  169  A    between atoms: _433  and  _436
REMARK  170  A    between atoms: _436  and  _437
REMARK  171  A    between atoms: _442  and  _444
REMARK  172  A    between atoms: _444  and  _445
REMARK  173  A    between atoms: _444  and  _447
REMARK  174  A    between atoms: _447  and  _448
REMARK  175  A    between atoms: _449  and  _450
REMARK  176  A    between atoms: _459  and  _461
REMARK  177  A    between atoms: _461  and  _462
REMARK  178  A    between atoms: _465  and  _467
REMARK  179  A    between atoms: _467  and  _468
REMARK  180  A    between atoms: _470  and  _472
REMARK  181  A    between atoms: _472  and  _473
REMARK  182  A    between atoms: _472  and  _475
REMARK  183  A    between atoms: _475  and  _476
REMARK  184  A    between atoms: _486  and  _488
REMARK  185  A    between atoms: _488  and  _489
REMARK  186  A    between atoms: _488  and  _491
REMARK  187  A    between atoms: _491  and  _492
REMARK  188  A    between atoms: _493  and  _495
REMARK  189  A    between atoms: _495  and  _496
REMARK  190  A    between atoms: _499  and  _501
REMARK  191  A    between atoms: _501  and  _502
REMARK  192  A    between atoms: _501  and  _504
REMARK  193  A    between atoms: _504  and  _505
REMARK  194  A    between atoms: _508  and  _510
REMARK  195  A    between atoms: _510  and  _511
REMARK  196  A    between atoms: _510  and  _513
REMARK  197  A    between atoms: _513  and  _514
REMARK  198  A    between atoms: _519  and  _520
REMARK  199  A    between atoms: _522  and  _524
REMARK  200  A    between atoms: _524  and  _525
REMARK  201  A    between atoms: _524  and  _527
REMARK  202  A    between atoms: _527  and  _528
REMARK  203  A    between atoms: _530  and  _532
REMARK  204  A    between atoms: _532  and  _533
REMARK  205  A    between atoms: _532  and  _535
REMARK  206  A    between atoms: _535  and  _536
REMARK  207  A    between atoms: _542  and  _544
REMARK  208  A    between atoms: _544  and  _545
REMARK  209  A    between atoms: _544  and  _547
REMARK  210  A    between atoms: _547  and  _548
REMARK  211  A    between atoms: _551  and  _553
REMARK  212  A    between atoms: _553  and  _554
REMARK  213  A    between atoms: _553  and  _556
REMARK  214  A    between atoms: _556  and  _557
REMARK  215  A    between atoms: _559  and  _561
REMARK  216  A    between atoms: _561  and  _562
REMARK  217  A    between atoms: _561  and  _564
REMARK  218  A    between atoms: _564  and  _565
REMARK  219  A    between atoms: _570  and  _572
REMARK  220  A    between atoms: _572  and  _573
REMARK  221  A    between atoms: _572  and  _575
REMARK  222  A    between atoms: _575  and  _576
REMARK  223  A    between atoms: _581  and  _583
REMARK  224  A    between atoms: _583  and  _584
REMARK  225  A    between atoms: _583  and  _586
REMARK  226  A    between atoms: _586  and  _587
REMARK  227  A    between atoms: _590  and  _592
REMARK  228  A    between atoms: _592  and  _593
REMARK  229  A    between atoms: _596  and  _598
REMARK  230  A    between atoms: _598  and  _599
REMARK  231  A    between atoms: _598  and  _601
REMARK  232  A    between atoms: _601  and  _602
REMARK  233  A    between atoms: _607  and  _608
REMARK  234  A    between atoms: _610  and  _612
REMARK  235  A    between atoms: _612  and  _613
REMARK  236  A    between atoms: _612  and  _615
REMARK  237  A    between atoms: _615  and  _616
REMARK  238  A    between atoms: _621  and  _622
REMARK  239  A    between atoms: _624  and  _626
REMARK  240  A    between atoms: _626  and  _627
REMARK  241  A    between atoms: _626  and  _629
REMARK  242  A    between atoms: _632  and  _634
REMARK  243  A    between atoms: _634  and  _635
REMARK  244  A    between atoms: _634  and  _637
REMARK  245  A    between atoms: _637  and  _638
REMARK  246  A    between atoms: _643  and  _645
REMARK  247  A    between atoms: _645  and  _646
REMARK  248  A    between atoms: _649  and  _651
REMARK  249  A    between atoms: _651  and  _652
REMARK  250  A    between atoms: _651  and  _654
REMARK  251  A    between atoms: _654  and  _655
REMARK  252  A    between atoms: _655  and  _656
REMARK  253  A    between atoms: _656  and  _657
REMARK  254  A    between atoms: _666  and  _668
REMARK  255  A    between atoms: _668  and  _669
REMARK  256  A    between atoms: _668  and  _671
REMARK  257  A    between atoms: _671  and  _672
REMARK  258  A    between atoms: _675  and  _677
REMARK  259  A    between atoms: _677  and  _678
REMARK  260  A    between atoms: _677  and  _680
REMARK  261  A    between atoms: _680  and  _681
REMARK  262  A    between atoms: _684  and  _686
REMARK  263  A    between atoms: _686  and  _687
REMARK  264  A    between atoms: _686  and  _689
REMARK  265  A    between atoms: _689  and  _690
REMARK                            x       y       z     vdW  Elec       q    Type
REMARK                         _______ _______ _______ _____ _____    ______ ____
ROOT
ATOM      1  CA  ASP A   2       0.735  10.955   7.823  0.00  0.00    +0.160 C 
ENDROOT
BRANCH   1   4
ATOM      2  C   LEU A   1       2.190  10.671   9.777  0.00  0.00    +0.238 C 
ATOM      3  O   LEU A   1       2.480  11.848   9.824  0.00  0.00    -0.274 OA
ATOM      4  N   ASP A   2       1.393  10.135   8.848  0.00  0.00    -0.297 N 
ATOM      5  H   ASP A   2       1.234   9.107   8.851  0.00  0.00    +0.150 HD
BRANCH   2   6
ATOM      6  CA  LEU A   1       2.841   9.706  10.772  0.00  0.00    +0.145 C 
BRANCH   6   7
ATOM      7  N   LEU A   1       2.207   8.409  10.701  0.00  0.00    -0.238 NA
ATOM      8  H   LEU A   1       2.504   7.747   9.956  0.00  0.00    +0.142 HD
ENDBRANCH   6   7
BRANCH   6   9
ATOM      9  CB  LEU A   1       4.343   9.653  10.481  0.00  0.00    +0.026 C 
BRANCH   9  10
ATOM     10  CG  LEU A   1       5.235   8.767  11.345  0.00  0.00    +0.002 C 
ATOM     11  CD2 LEU A   1       4.701   8.548  12.739  0.00  0.00    +0.000 C 
ATOM     12  CD1 LEU A   1       6.670   9.291  11.381  0.00  0.00    +0.000 C 
ENDBRANCH   9  10
ENDBRANCH   6   9
ENDBRANCH   2   6
ENDBRANCH   1   4
BRANCH   1  13
ATOM     13  C   ASP A   2       1.707  11.828   7.028  0.00  0.00    +0.241 C 
ATOM     14  O   ASP A   2       1.471  13.020   6.757  0.00  0.00    -0.273 OA
ATOM     15  N   ASN A   3       2.803  11.229   6.590  0.00  0.00    -0.298 N 
ATOM     16  H   ASN A   3       2.963  10.233   6.842  0.00  0.00    +0.150 HD
BRANCH  15  17
ATOM     17  CA  ASN A   3       3.798  11.914   5.765  0.00  0.00    +0.146 C 
BRANCH  17  18
ATOM     18  C   ASN A   3       3.336  11.815   4.301  0.00  0.00    +0.227 C 
ATOM     19  O   ASN A   3       3.948  11.110   3.527  0.00  0.00    -0.286 OA
ENDBRANCH  17  18
BRANCH  17  20
ATOM     20  CB  ASN A   3       5.173  11.253   5.938  0.00  0.00    +0.112 C 
BRANCH  20  21
ATOM     21  CG  ASN A   3       5.845  11.781   7.199  0.00  0.00    +0.222 C 
ATOM     22  ND2 ASN A   3       6.567  10.938   7.910  0.00  0.00    -0.329 N 
ATOM     23 HD21 ASN A   3       7.040  11.262   8.778  0.00  0.00    +0.145 HD
ATOM     24 HD22 ASN A   3       6.663   9.949   7.603  0.00  0.00    +0.145 HD
ATOM     25  OD1 ASN A   3       5.716  12.951   7.539  0.00  0.00    -0.275 OA
ENDBRANCH  20  21
ENDBRANCH  17  20
ENDBRANCH  15  17
ENDBRANCH   1  13
BRANCH   1  26
ATOM     26  CB  ASP A   2      -0.317  11.881   8.441  0.00  0.00    +0.143 C 
BRANCH  26  27
ATOM     27  CG  ASP A   2      -1.392  12.210   7.411  0.00  0.00    +0.367 C 
ATOM     28  OD2 ASP A   2      -1.924  13.311   7.437  0.00  0.00    -0.246 OA
ATOM     29  OD1 ASP A   2      -1.673  11.368   6.544  0.00  0.00    -0.246 OA
ENDBRANCH  26  27
ENDBRANCH   1  26
TORSDOF 12
REMARK  Name = ../refined-set-2016/1b2h/1b2h_pocket.pdb
REMARK  265 active torsions:
REMARK  status: ('A' for Active; 'I' for Inactive)
REMARK    1  A    between atoms: _1  and  _3
REMARK    2  A    between atoms: _3  and  _4
REMARK    3  A    between atoms: _3  and  _6
REMARK    4  A    between atoms: _6  and  _7
REMARK    5  A    between atoms: _12  and  _14
REMARK    6  A    between atoms: _14  and  _15
REMARK    7  A    between atoms: _17  and  _19
REMARK    8  A    between atoms: _19  and  _20
REMARK    9  A    between atoms: _19  and  _22
REMARK   10  A    between atoms: _22  and  _23
REMARK   11  A    between atoms: _25  and  _27
REMARK   12  A    between atoms: _27  and  _28
REMARK   13  A    between atoms: _27  and  _30
REMARK   14  A    between atoms: _30  and  _31
REMARK   15  A    between atoms: _31  and  _32
REMARK   16  A    between atoms: _37  and  _39
REMARK   17  A    between atoms: _39  and  _40
REMARK   18  A    between atoms: _39  and  _42
REMARK   19  A    between atoms: _42  and  _43
REMARK   20  A    between atoms: _46  and  _48
REMARK   21  A    between atoms: _48  and  _49
REMARK   22  A    between atoms: _48  and  _51
REMARK   23  A    between atoms: _52  and  _53
REMARK   24  A    between atoms: _56  and  _58
REMARK   25  A    between atoms: _58  and  _59
REMARK   26  A    between atoms: _61  and  _63
REMARK   27  A    between atoms: _63  and  _64
REMARK   28  A    between atoms: _63  and  _66
REMARK   29  A    between atoms: _70  and  _71
REMARK   30  A    between atoms: _76  and  _78
REMARK   31  A    between atoms: _78  and  _79
REMARK   32  A    between atoms: _78  and  _81
REMARK   33  A    between atoms: _81  and  _82
REMARK   34  A    between atoms: _82  and  _83
REMARK   35  A    between atoms: _86  and  _88
REMARK   36  A    between atoms: _88  and  _89
REMARK   37  A    between atoms: _88  and  _91
REMARK   38  A    between atoms: _91  and  _92
REMARK   39  A    between atoms: _94  and  _96
REMARK   40  A    between atoms: _96  and  _97
REMARK   41  A    between atoms: _96  and  _99
REMARK   42  A    between atoms: _99  and  _100
REMARK   43  A    between atoms: _105  and  _107
REMARK   44  A    between atoms: _107  and  _108
REMARK   45  A    between atoms: _107  and  _110
REMARK   46  A    between atoms: _110  and  _111
REMARK   47  A    between atoms: _111  and  _112
REMARK   48  A    between atoms: _112  and  _113
REMARK   49  A    between atoms: _123  and  _124
REMARK   50  A    between atoms: _129  and  _131
REMARK   51  A    between atoms: _131  and  _132
REMARK   52  A    between atoms: _131  and  _134
REMARK   53  A    between atoms: _134  and  _135
REMARK   54  A    between atoms: _140  and  _141
REMARK   55  A    between atoms: _143  and  _145
REMARK   56  A    between atoms: _145  and  _146
REMARK   57  A    between atoms: _145  and  _148
REMARK   58  A    between atoms: _148  and  _149
REMARK   59  A    between atoms: _154  and  _155
REMARK   60  A    between atoms: _157  and  _159
REMARK   61  A    between atoms: _159  and  _160
REMARK   62  A    between atoms: _159  and  _162
REMARK   63  A    between atoms: _165  and  _167
REMARK   64  A    between atoms: _167  and  _168
REMARK   65  A    between atoms: _167  and  _170
REMARK   66  A    between atoms: _170  and  _171
REMARK   67  A    between atoms: _177  and  _178
REMARK   68  A    between atoms: _183  and  _185
REMARK   69  A    between atoms: _185  and  _186
REMARK   70  A    between atoms: _185  and  _188
REMARK   71  A    between atoms: _188  and  _189
REMARK   72  A    between atoms: _191  and  _193
REMARK   73  A    between atoms: _193  and  _194
REMARK   74  A    between atoms: _193  and  _196
REMARK   75  A    between atoms: _196  and  _197
REMARK   76  A    between atoms: _197  and  _198
REMARK   77  A    between atoms: _201  and  _203
REMARK   78  A    between atoms: _203  and  _204
REMARK   79  A    between atoms: _203  and  _206
REMARK   80  A    between atoms: _206  and  _207
REMARK   81  A    between atoms: _212  and  _213
REMARK   82  A    between atoms: _215  and  _217
REMARK   83  A    between atoms: _217  and  _218
REMARK   84  A    between atoms: _217  and  _220
REMARK   85  A    between atoms: _220  and  _221
REMARK   86  A    between atoms: _226  and  _228
REMARK   87  A    between atoms: _228  and  _229
REMARK   88  A    between atoms: _228  and  _231
REMARK   89  A    between atoms: _231  and  _232
REMARK   90  A    between atoms: _237  and  _239
REMARK   91  A    between atoms: _239  and  _240
REMARK   92  A    between atoms: _239  and  _242
REMARK   93  A    between atoms: _242  and  _243
REMARK   94  A    between atoms: _243  and  _244
REMARK   95  A    between atoms: _246  and  _248
REMARK   96  A    between atoms: _248  and  _249
REMARK   97  A    between atoms: _248  and  _251
REMARK   98  A    between atoms: _251  and  _252
REMARK   99  A    between atoms: _257  and  _258
REMARK  100  A    between atoms: _260  and  _262
REMARK  101  A    between atoms: _262  and  _263
REMARK  102  A    between atoms: _262  and  _265
REMARK  103  A    between atoms: _265  and  _266
REMARK  104  A    between atoms: _269  and  _271
REMARK  105  A    between atoms: _271  and  _272
REMARK  106  A    between atoms: _271  and  _274
REMARK  107  A    between atoms: _274  and  _275
REMARK  108  A    between atoms: _275  and  _492
REMARK  109  A    between atoms: _276  and  _278
REMARK  110  A    between atoms: _278  and  _279
REMARK  111  A    between atoms: _278  and  _281
REMARK  112  A    between atoms: _281  and  _282
REMARK  113  A    between atoms: _285  and  _287
REMARK  114  A    between atoms: _287  and  _288
REMARK  115  A    between atoms: _287  and  _290
REMARK  116  A    between atoms: _290  and  _291
REMARK  117  A    between atoms: _296  and  _297
REMARK  118  A    between atoms: _299  and  _301
REMARK  119  A    between atoms: _301  and  _302
REMARK  120  A    between atoms: _301  and  _304
REMARK  121  A    between atoms: _304  and  _305
REMARK  122  A    between atoms: _310  and  _311
REMARK  123  A    between atoms: _313  and  _315
REMARK  124  A    between atoms: _315  and  _316
REMARK  125  A    between atoms: _315  and  _318
REMARK  126  A    between atoms: _318  and  _319
REMARK  127  A    between atoms: _319  and  _320
REMARK  128  A    between atoms: _323  and  _325
REMARK  129  A    between atoms: _325  and  _326
REMARK  130  A    between atoms: _325  and  _328
REMARK  131  A    between atoms: _328  and  _329
REMARK  132  A    between atoms: _334  and  _335
REMARK  133  A    between atoms: _337  and  _339
REMARK  134  A    between atoms: _339  and  _340
REMARK  135  A    between atoms: _339  and  _342
REMARK  136  A    between atoms: _342  and  _343
REMARK  137  A    between atoms: _348  and  _350
REMARK  138  A    between atoms: _350  and  _351
REMARK  139  A    between atoms: _350  and  _353
REMARK  140  A    between atoms: _353  and  _354
REMARK  141  A    between atoms: _357  and  _359
REMARK  142  A    between atoms: _359  and  _360
REMARK  143  A    between atoms: _359  and  _362
REMARK  144  A    between atoms: _362  and  _363
REMARK  145  A    between atoms: _368  and  _370
REMARK  146  A    between atoms: _370  and  _371
REMARK  147  A    between atoms: _370  and  _373
REMARK  148  A    between atoms: _373  and  _374
REMARK  149  A    between atoms: _384  and  _386
REMARK  150  A    between atoms: _386  and  _387
REMARK  151  A    between atoms: _386  and  _389
REMARK  152  A    between atoms: _389  and  _390
REMARK  153  A    between atoms: _396  and  _398
REMARK  154  A    between atoms: _398  and  _399
REMARK  155  A    between atoms: _398  and  _401
REMARK  156  A    between atoms: _401  and  _402
REMARK  157  A    between atoms: _405  and  _407
REMARK  158  A    between atoms: _407  and  _408
REMARK  159  A    between atoms: _407  and  _410
REMARK  160  A    between atoms: _410  and  _411
REMARK  161  A    between atoms: _414  and  _416
REMARK  162  A    between atoms: _416  and  _417
REMARK  163  A    between atoms: _416  and  _419
REMARK  164  A    between atoms: _419  and  _420
REMARK  165  A    between atoms: _420  and  _421
REMARK  166  A    between atoms: _421  and  _422
REMARK  167  A    between atoms: _431  and  _433
REMARK  168  A    between atoms: _433  and  _434
REMARK  169  A    between atoms: _433  and  _436
REMARK  170  A    between atoms: _436  and  _437
REMARK  171  A    between atoms: _442  and  _444
REMARK  172  A    between atoms: _444  and  _445
REMARK  173  A    between atoms: _444  and  _447
REMARK  174  A    between atoms: _447  and  _448
REMARK  175  A    between atoms: _449  and  _450
REMARK  176  A    between atoms: _459  and  _461
REMARK  177  A    between atoms: _461  and  _462
REMARK  178  A    between atoms: _465  and  _467
REMARK  179  A    between atoms: _467  and  _468
REMARK  180  A    between atoms: _470  and  _472
REMARK  181  A    between atoms: _472  and  _473
REMARK  182  A    between atoms: _472  and  _475
REMARK  183  A    between atoms: _475  and  _476
REMARK  184  A    between atoms: _486  and  _488
REMARK  185  A    between atoms: _488  and  _489
REMARK  186  A    between atoms: _488  and  _491
REMARK  187  A    between atoms: _491  and  _492
REMARK  188  A    between atoms: _493  and  _495
REMARK  189  A    between atoms: _495  and  _496
REMARK  190  A    between atoms: _499  and  _501
REMARK  191  A    between atoms: _501  and  _502
REMARK  192  A    between atoms: _501  and  _504
REMARK  193  A    between atoms: _504  and  _505
REMARK  194  A    between atoms: _508  and  _510
REMARK  195  A    between atoms: _510  and  _511
REMARK  196  A    between atoms: _510  and  _513
REMARK  197  A    between atoms: _513  and  _514
REMARK  198  A    between atoms: _519  and  _520
REMARK  199  A    between atoms: _522  and  _524
REMARK  200  A    between atoms: _524  and  _525
REMARK  201  A    between atoms: _524  and  _527
REMARK  202  A    between atoms: _527  and  _528
REMARK  203  A    between atoms: _530  and  _532
REMARK  204  A    between atoms: _532  and  _533
REMARK  205  A    between atoms: _532  and  _535
REMARK  206  A    between atoms: _535  and  _536
REMARK  207  A    between atoms: _542  and  _544
REMARK  208  A    between atoms: _544  and  _545
REMARK  209  A    between atoms: _544  and  _547
REMARK  210  A    between atoms: _547  and  _548
REMARK  211  A    between atoms: _551  and  _553
REMARK  212  A    between atoms: _553  and  _554
REMARK  213  A    between atoms: _553  and  _556
REMARK  214  A    between atoms: _556  and  _557
REMARK  215  A    between atoms: _559  and  _561
REMARK  216  A    between atoms: _561  and  _562
REMARK  217  A    between atoms: _561  and  _564
REMARK  218  A    between atoms: _564  and  _565
REMARK  219  A    between atoms: _570  and  _572
REMARK  220  A    between atoms: _572  and  _573
REMARK  221  A    between atoms: _572  and  _575
REMARK  222  A    between atoms: _575  and  _576
REMARK  223  A    between atoms: _581  and  _583
REMARK  224  A    between atoms: _583  and  _584
REMARK  225  A    between atoms: _583  and  _586
REMARK  226  A    between atoms: _586  and  _587
REMARK  227  A    between atoms: _590  and  _592
REMARK  228  A    between atoms: _592  and  _593
REMARK  229  A    between atoms: _596  and  _598
REMARK  230  A    between atoms: _598  and  _599
REMARK  231  A    between atoms: _598  and  _601
REMARK  232  A    between atoms: _601  and  _602
REMARK  233  A    between atoms: _607  and  _608
REMARK  234  A    between atoms: _610  and  _612
REMARK  235  A    between atoms: _612  and  _613
REMARK  236  A    between atoms: _612  and  _615
REMARK  237  A    between atoms: _615  and  _616
REMARK  238  A    between atoms: _621  and  _622
REMARK  239  A    between atoms: _624  and  _626
REMARK  240  A    between atoms: _626  and  _627
REMARK  241  A    between atoms: _626  and  _629
REMARK  242  A    between atoms: _632  and  _634
REMARK  243  A    between atoms: _634  and  _635
REMARK  244  A    between atoms: _634  and  _637
REMARK  245  A    between atoms: _637  and  _638
REMARK  246  A    between atoms: _643  and  _645
REMARK  247  A    between atoms: _645  and  _646
REMARK  248  A    between atoms: _649  and  _651
REMARK  249  A    between atoms: _651  and  _652
REMARK  250  A    between atoms: _651  and  _654
REMARK  251  A    between atoms: _654  and  _655
REMARK  252  A    between atoms: _655  and  _656
REMARK  253  A    between atoms: _656  and  _657
REMARK  254  A    between atoms: _666  and  _668
REMARK  255  A    between atoms: _668  and  _669
REMARK  256  A    between atoms: _668  and  _671
REMARK  257  A    between atoms: _671  and  _672
REMARK  258  A    between atoms: _675  and  _677
REMARK  259  A    between atoms: _677  and  _678
REMARK  260  A    between atoms: _677  and  _680
REMARK  261  A    between atoms: _680  and  _681
REMARK  262  A    between atoms: _684  and  _686
REMARK  263  A    between atoms: _686  and  _687
REMARK  264  A    between atoms: _686  and  _689
REMARK  265  A    between atoms: _689  and  _690
REMARK                            x       y       z     vdW  Elec       q    Type
REMARK                         _______ _______ _______ _____ _____    ______ ____
ROOT
ATOM      1  O   HOH     1       3.479  17.160   8.221  0.00  0.00    +0.000 OA
ENDROOT
TORSDOF 0
REMARK  Name = ../refined-set-2016/1b2h/1b2h_pocket.pdb
REMARK  265 active torsions:
REMARK  status: ('A' for Active; 'I' for Inactive)
REMARK    1  A    between atoms: _1  and  _3
REMARK    2  A    between atoms: _3  and  _4
REMARK    3  A    between atoms: _3  and  _6
REMARK    4  A    between atoms: _6  and  _7
REMARK    5  A    between atoms: _12  and  _14
REMARK    6  A    between atoms: _14  and  _15
REMARK    7  A    between atoms: _17  and  _19
REMARK    8  A    between atoms: _19  and  _20
REMARK    9  A    between atoms: _19  and  _22
REMARK   10  A    between atoms: _22  and  _23
REMARK   11  A    between atoms: _25  and  _27
REMARK   12  A    between atoms: _27  and  _28
REMARK   13  A    between atoms: _27  and  _30
REMARK   14  A    between atoms: _30  and  _31
REMARK   15  A    between atoms: _31  and  _32
REMARK   16  A    between atoms: _37  and  _39
REMARK   17  A    between atoms: _39  and  _40
REMARK   18  A    between atoms: _39  and  _42
REMARK   19  A    between atoms: _42  and  _43
REMARK   20  A    between atoms: _46  and  _48
REMARK   21  A    between atoms: _48  and  _49
REMARK   22  A    between atoms: _48  and  _51
REMARK   23  A    between atoms: _52  and  _53
REMARK   24  A    between atoms: _56  and  _58
REMARK   25  A    between atoms: _58  and  _59
REMARK   26  A    between atoms: _61  and  _63
REMARK   27  A    between atoms: _63  and  _64
REMARK   28  A    between atoms: _63  and  _66
REMARK   29  A    between atoms: _70  and  _71
REMARK   30  A    between atoms: _76  and  _78
REMARK   31  A    between atoms: _78  and  _79
REMARK   32  A    between atoms: _78  and  _81
REMARK   33  A    between atoms: _81  and  _82
REMARK   34  A    between atoms: _82  and  _83
REMARK   35  A    between atoms: _86  and  _88
REMARK   36  A    between atoms: _88  and  _89
REMARK   37  A    between atoms: _88  and  _91
REMARK   38  A    between atoms: _91  and  _92
REMARK   39  A    between atoms: _94  and  _96
REMARK   40  A    between atoms: _96  and  _97
REMARK   41  A    between atoms: _96  and  _99
REMARK   42  A    between atoms: _99  and  _100
REMARK   43  A    between atoms: _105  and  _107
REMARK   44  A    between atoms: _107  and  _108
REMARK   45  A    between atoms: _107  and  _110
REMARK   46  A    between atoms: _110  and  _111
REMARK   47  A    between atoms: _111  and  _112
REMARK   48  A    between atoms: _112  and  _113
REMARK   49  A    between atoms: _123  and  _124
REMARK   50  A    between atoms: _129  and  _131
REMARK   51  A    between atoms: _131  and  _132
REMARK   52  A    between atoms: _131  and  _134
REMARK   53  A    between atoms: _134  and  _135
REMARK   54  A    between atoms: _140  and  _141
REMARK   55  A    between atoms: _143  and  _145
REMARK   56  A    between atoms: _145  and  _146
REMARK   57  A    between atoms: _145  and  _148
REMARK   58  A    between atoms: _148  and  _149
REMARK   59  A    between atoms: _154  and  _155
REMARK   60  A    between atoms: _157  and  _159
REMARK   61  A    between atoms: _159  and  _160
REMARK   62  A    between atoms: _159  and  _162
REMARK   63  A    between atoms: _165  and  _167
REMARK   64  A    between atoms: _167  and  _168
REMARK   65  A    between atoms: _167  and  _170
REMARK   66  A    between atoms: _170  and  _171
REMARK   67  A    between atoms: _177  and  _178
REMARK   68  A    between atoms: _183  and  _185
REMARK   69  A    between atoms: _185  and  _186
REMARK   70  A    between atoms: _185  and  _188
REMARK   71  A    between atoms: _188  and  _189
REMARK   72  A    between atoms: _191  and  _193
REMARK   73  A    between atoms: _193  and  _194
REMARK   74  A    between atoms: _193  and  _196
REMARK   75  A    between atoms: _196  and  _197
REMARK   76  A    between atoms: _197  and  _198
REMARK   77  A    between atoms: _201  and  _203
REMARK   78  A    between atoms: _203  and  _204
REMARK   79  A    between atoms: _203  and  _206
REMARK   80  A    between atoms: _206  and  _207
REMARK   81  A    between atoms: _212  and  _213
REMARK   82  A    between atoms: _215  and  _217
REMARK   83  A    between atoms: _217  and  _218
REMARK   84  A    between atoms: _217  and  _220
REMARK   85  A    between atoms: _220  and  _221
REMARK   86  A    between atoms: _226  and  _228
REMARK   87  A    between atoms: _228  and  _229
REMARK   88  A    between atoms: _228  and  _231
REMARK   89  A    between atoms: _231  and  _232
REMARK   90  A    between atoms: _237  and  _239
REMARK   91  A    between atoms: _239  and  _240
REMARK   92  A    between atoms: _239  and  _242
REMARK   93  A    between atoms: _242  and  _243
REMARK   94  A    between atoms: _243  and  _244
REMARK   95  A    between atoms: _246  and  _248
REMARK   96  A    between atoms: _248  and  _249
REMARK   97  A    between atoms: _248  and  _251
REMARK   98  A    between atoms: _251  and  _252
REMARK   99  A    between atoms: _257  and  _258
REMARK  100  A    between atoms: _260  and  _262
REMARK  101  A    between atoms: _262  and  _263
REMARK  102  A    between atoms: _262  and  _265
REMARK  103  A    between atoms: _265  and  _266
REMARK  104  A    between atoms: _269  and  _271
REMARK  105  A    between atoms: _271  and  _272
REMARK  106  A    between atoms: _271  and  _274
REMARK  107  A    between atoms: _274  and  _275
REMARK  108  A    between atoms: _275  and  _492
REMARK  109  A    between atoms: _276  and  _278
REMARK  110  A    between atoms: _278  and  _279
REMARK  111  A    between atoms: _278  and  _281
REMARK  112  A    between atoms: _281  and  _282
REMARK  113  A    between atoms: _285  and  _287
REMARK  114  A    between atoms: _287  and  _288
REMARK  115  A    between atoms: _287  and  _290
REMARK  116  A    between atoms: _290  and  _291
REMARK  117  A    between atoms: _296  and  _297
REMARK  118  A    between atoms: _299  and  _301
REMARK  119  A    between atoms: _301  and  _302
REMARK  120  A    between atoms: _301  and  _304
REMARK  121  A    between atoms: _304  and  _305
REMARK  122  A    between atoms: _310  and  _311
REMARK  123  A    between atoms: _313  and  _315
REMARK  124  A    between atoms: _315  and  _316
REMARK  125  A    between atoms: _315  and  _318
REMARK  126  A    between atoms: _318  and  _319
REMARK  127  A    between atoms: _319  and  _320
REMARK  128  A    between atoms: _323  and  _325
REMARK  129  A    between atoms: _325  and  _326
REMARK  130  A    between atoms: _325  and  _328
REMARK  131  A    between atoms: _328  and  _329
REMARK  132  A    between atoms: _334  and  _335
REMARK  133  A    between atoms: _337  and  _339
REMARK  134  A    between atoms: _339  and  _340
REMARK  135  A    between atoms: _339  and  _342
REMARK  136  A    between atoms: _342  and  _343
REMARK  137  A    between atoms: _348  and  _350
REMARK  138  A    between atoms: _350  and  _351
REMARK  139  A    between atoms: _350  and  _353
REMARK  140  A    between atoms: _353  and  _354
REMARK  141  A    between atoms: _357  and  _359
REMARK  142  A    between atoms: _359  and  _360
REMARK  143  A    between atoms: _359  and  _362
REMARK  144  A    between atoms: _362  and  _363
REMARK  145  A    between atoms: _368  and  _370
REMARK  146  A    between atoms: _370  and  _371
REMARK  147  A    between atoms: _370  and  _373
REMARK  148  A    between atoms: _373  and  _374
REMARK  149  A    between atoms: _384  and  _386
REMARK  150  A    between atoms: _386  and  _387
REMARK  151  A    between atoms: _386  and  _389
REMARK  152  A    between atoms: _389  and  _390
REMARK  153  A    between atoms: _396  and  _398
REMARK  154  A    between atoms: _398  and  _399
REMARK  155  A    between atoms: _398  and  _401
REMARK  156  A    between atoms: _401  and  _402
REMARK  157  A    between atoms: _405  and  _407
REMARK  158  A    between atoms: _407  and  _408
REMARK  159  A    between atoms: _407  and  _410
REMARK  160  A    between atoms: _410  and  _411
REMARK  161  A    between atoms: _414  and  _416
REMARK  162  A    between atoms: _416  and  _417
REMARK  163  A    between atoms: _416  and  _419
REMARK  164  A    between atoms: _419  and  _420
REMARK  165  A    between atoms: _420  and  _421
REMARK  166  A    between atoms: _421  and  _422
REMARK  167  A    between atoms: _431  and  _433
REMARK  168  A    between atoms: _433  and  _434
REMARK  169  A    between atoms: _433  and  _436
REMARK  170  A    between atoms: _436  and  _437
REMARK  171  A    between atoms: _442  and  _444
REMARK  172  A    between atoms: _444  and  _445
REMARK  173  A    between atoms: _444  and  _447
REMARK  174  A    between atoms: _447  and  _448
REMARK  175  A    between atoms: _449  and  _450
REMARK  176  A    between atoms: _459  and  _461
REMARK  177  A    between atoms: _461  and  _462
REMARK  178  A    between atoms: _465  and  _467
REMARK  179  A    between atoms: _467  and  _468
REMARK  180  A    between atoms: _470  and  _472
REMARK  181  A    between atoms: _472  and  _473
REMARK  182  A    between atoms: _472  and  _475
REMARK  183  A    between atoms: _475  and  _476
REMARK  184  A    between atoms: _486  and  _488
REMARK  185  A    between atoms: _488  and  _489
REMARK  186  A    between atoms: _488  and  _491
REMARK  187  A    between atoms: _491  and  _492
REMARK  188  A    between atoms: _493  and  _495
REMARK  189  A    between atoms: _495  and  _496
REMARK  190  A    between atoms: _499  and  _501
REMARK  191  A    between atoms: _501  and  _502
REMARK  192  A    between atoms: _501  and  _504
REMARK  193  A    between atoms: _504  and  _505
REMARK  194  A    between atoms: _508  and  _510
REMARK  195  A    between atoms: _510  and  _511
REMARK  196  A    between atoms: _510  and  _513
REMARK  197  A    between atoms: _513  and  _514
REMARK  198  A    between atoms: _519  and  _520
REMARK  199  A    between atoms: _522  and  _524
REMARK  200  A    between atoms: _524  and  _525
REMARK  201  A    between atoms: _524  and  _527
REMARK  202  A    between atoms: _527  and  _528
REMARK  203  A    between atoms: _530  and  _532
REMARK  204  A    between atoms: _532  and  _533
REMARK  205  A    between atoms: _532  and  _535
REMARK  206  A    between atoms: _535  and  _536
REMARK  207  A    between atoms: _542  and  _544
REMARK  208  A    between atoms: _544  and  _545
REMARK  209  A    between atoms: _544  and  _547
REMARK  210  A    between atoms: _547  and  _548
REMARK  211  A    between atoms: _551  and  _553
REMARK  212  A    between atoms: _553  and  _554
REMARK  213  A    between atoms: _553  and  _556
REMARK  214  A    between atoms: _556  and  _557
REMARK  215  A    between atoms: _559  and  _561
REMARK  216  A    between atoms: _561  and  _562
REMARK  217  A    between atoms: _561  and  _564
REMARK  218  A    between atoms: _564  and  _565
REMARK  219  A    between atoms: _570  and  _572
REMARK  220  A    between atoms: _572  and  _573
REMARK  221  A    between atoms: _572  and  _575
REMARK  222  A    between atoms: _575  and  _576
REMARK  223  A    between atoms: _581  and  _583
REMARK  224  A    between atoms: _583  and  _584
REMARK  225  A    between atoms: _583  and  _586
REMARK  226  A    between atoms: _586  and  _587
REMARK  227  A    between atoms: _590  and  _592
REMARK  228  A    between atoms: _592  and  _593
REMARK  229  A    between atoms: _596  and  _598
REMARK  230  A    between atoms: _598  and  _599
REMARK  231  A    between atoms: _598  and  _601
REMARK  232  A    between atoms: _601  and  _602
REMARK  233  A    between atoms: _607  and  _608
REMARK  234  A    between atoms: _610  and  _612
REMARK  235  A    between atoms: _612  and  _613
REMARK  236  A    between atoms: _612  and  _615
REMARK  237  A    between atoms: _615  and  _616
REMARK  238  A    between atoms: _621  and  _622
REMARK  239  A    between atoms: _624  and  _626
REMARK  240  A    between atoms: _626  and  _627
REMARK  241  A    between atoms: _626  and  _629
REMARK  242  A    between atoms: _632  and  _634
REMARK  243  A    between atoms: _634  and  _635
REMARK  244  A    between atoms: _634  and  _637
REMARK  245  A    between atoms: _637  and  _638
REMARK  246  A    between atoms: _643  and  _645
REMARK  247  A    between atoms: _645  and  _646
REMARK  248  A    between atoms: _649  and  _651
REMARK  249  A    between atoms: _651  and  _652
REMARK  250  A    between atoms: _651  and  _654
REMARK  251  A    between atoms: _654  and  _655
REMARK  252  A    between atoms: _655  and  _656
REMARK  253  A    between atoms: _656  and  _657
REMARK  254  A    between atoms: _666  and  _668
REMARK  255  A    between atoms: _668  and  _669
REMARK  256  A    between atoms: _668  and  _671
REMARK  257  A    between atoms: _671  and  _672
REMARK  258  A    between atoms: _675  and  _677
REMARK  259  A    between atoms: _677  and  _678
REMARK  260  A    between atoms: _677  and  _680
REMARK  261  A    between atoms: _680  and  _681
REMARK  262  A    between atoms: _684  and  _686
REMARK  263  A    between atoms: _686  and  _687
REMARK  264  A    between atoms: _686  and  _689
REMARK  265  A    between atoms: _689  and  _690
REMARK                            x       y       z     vdW  Elec       q    Type
REMARK                         _______ _______ _______ _____ _____    ______ ____
ROOT
ATOM      1  O   HOH     1      -2.154  17.577   7.859  0.00  0.00    +0.000 OA
ENDROOT
TORSDOF 0
REMARK  Name = ../refined-set-2016/1b2h/1b2h_pocket.pdb
REMARK  265 active torsions:
REMARK  status: ('A' for Active; 'I' for Inactive)
REMARK    1  A    between atoms: _1  and  _3
REMARK    2  A    between atoms: _3  and  _4
REMARK    3  A    between atoms: _3  and  _6
REMARK    4  A    between atoms: _6  and  _7
REMARK    5  A    between atoms: _12  and  _14
REMARK    6  A    between atoms: _14  and  _15
REMARK    7  A    between atoms: _17  and  _19
REMARK    8  A    between atoms: _19  and  _20
REMARK    9  A    between atoms: _19  and  _22
REMARK   10  A    between atoms: _22  and  _23
REMARK   11  A    between atoms: _25  and  _27
REMARK   12  A    between atoms: _27  and  _28
REMARK   13  A    between atoms: _27  and  _30
REMARK   14  A    between atoms: _30  and  _31
REMARK   15  A    between atoms: _31  and  _32
REMARK   16  A    between atoms: _37  and  _39
REMARK   17  A    between atoms: _39  and  _40
REMARK   18  A    between atoms: _39  and  _42
REMARK   19  A    between atoms: _42  and  _43
REMARK   20  A    between atoms: _46  and  _48
REMARK   21  A    between atoms: _48  and  _49
REMARK   22  A    between atoms: _48  and  _51
REMARK   23  A    between atoms: _52  and  _53
REMARK   24  A    between atoms: _56  and  _58
REMARK   25  A    between atoms: _58  and  _59
REMARK   26  A    between atoms: _61  and  _63
REMARK   27  A    between atoms: _63  and  _64
REMARK   28  A    between atoms: _63  and  _66
REMARK   29  A    between atoms: _70  and  _71
REMARK   30  A    between atoms: _76  and  _78
REMARK   31  A    between atoms: _78  and  _79
REMARK   32  A    between atoms: _78  and  _81
REMARK   33  A    between atoms: _81  and  _82
REMARK   34  A    between atoms: _82  and  _83
REMARK   35  A    between atoms: _86  and  _88
REMARK   36  A    between atoms: _88  and  _89
REMARK   37  A    between atoms: _88  and  _91
REMARK   38  A    between atoms: _91  and  _92
REMARK   39  A    between atoms: _94  and  _96
REMARK   40  A    between atoms: _96  and  _97
REMARK   41  A    between atoms: _96  and  _99
REMARK   42  A    between atoms: _99  and  _100
REMARK   43  A    between atoms: _105  and  _107
REMARK   44  A    between atoms: _107  and  _108
REMARK   45  A    between atoms: _107  and  _110
REMARK   46  A    between atoms: _110  and  _111
REMARK   47  A    between atoms: _111  and  _112
REMARK   48  A    between atoms: _112  and  _113
REMARK   49  A    between atoms: _123  and  _124
REMARK   50  A    between atoms: _129  and  _131
REMARK   51  A    between atoms: _131  and  _132
REMARK   52  A    between atoms: _131  and  _134
REMARK   53  A    between atoms: _134  and  _135
REMARK   54  A    between atoms: _140  and  _141
REMARK   55  A    between atoms: _143  and  _145
REMARK   56  A    between atoms: _145  and  _146
REMARK   57  A    between atoms: _145  and  _148
REMARK   58  A    between atoms: _148  and  _149
REMARK   59  A    between atoms: _154  and  _155
REMARK   60  A    between atoms: _157  and  _159
REMARK   61  A    between atoms: _159  and  _160
REMARK   62  A    between atoms: _159  and  _162
REMARK   63  A    between atoms: _165  and  _167
REMARK   64  A    between atoms: _167  and  _168
REMARK   65  A    between atoms: _167  and  _170
REMARK   66  A    between atoms: _170  and  _171
REMARK   67  A    between atoms: _177  and  _178
REMARK   68  A    between atoms: _183  and  _185
REMARK   69  A    between atoms: _185  and  _186
REMARK   70  A    between atoms: _185  and  _188
REMARK   71  A    between atoms: _188  and  _189
REMARK   72  A    between atoms: _191  and  _193
REMARK   73  A    between atoms: _193  and  _194
REMARK   74  A    between atoms: _193  and  _196
REMARK   75  A    between atoms: _196  and  _197
REMARK   76  A    between atoms: _197  and  _198
REMARK   77  A    between atoms: _201  and  _203
REMARK   78  A    between atoms: _203  and  _204
REMARK   79  A    between atoms: _203  and  _206
REMARK   80  A    between atoms: _206  and  _207
REMARK   81  A    between atoms: _212  and  _213
REMARK   82  A    between atoms: _215  and  _217
REMARK   83  A    between atoms: _217  and  _218
REMARK   84  A    between atoms: _217  and  _220
REMARK   85  A    between atoms: _220  and  _221
REMARK   86  A    between atoms: _226  and  _228
REMARK   87  A    between atoms: _228  and  _229
REMARK   88  A    between atoms: _228  and  _231
REMARK   89  A    between atoms: _231  and  _232
REMARK   90  A    between atoms: _237  and  _239
REMARK   91  A    between atoms: _239  and  _240
REMARK   92  A    between atoms: _239  and  _242
REMARK   93  A    between atoms: _242  and  _243
REMARK   94  A    between atoms: _243  and  _244
REMARK   95  A    between atoms: _246  and  _248
REMARK   96  A    between atoms: _248  and  _249
REMARK   97  A    between atoms: _248  and  _251
REMARK   98  A    between atoms: _251  and  _252
REMARK   99  A    between atoms: _257  and  _258
REMARK  100  A    between atoms: _260  and  _262
REMARK  101  A    between atoms: _262  and  _263
REMARK  102  A    between atoms: _262  and  _265
REMARK  103  A    between atoms: _265  and  _266
REMARK  104  A    between atoms: _269  and  _271
REMARK  105  A    between atoms: _271  and  _272
REMARK  106  A    between atoms: _271  and  _274
REMARK  107  A    between atoms: _274  and  _275
REMARK  108  A    between atoms: _275  and  _492
REMARK  109  A    between atoms: _276  and  _278
REMARK  110  A    between atoms: _278  and  _279
REMARK  111  A    between atoms: _278  and  _281
REMARK  112  A    between atoms: _281  and  _282
REMARK  113  A    between atoms: _285  and  _287
REMARK  114  A    between atoms: _287  and  _288
REMARK  115  A    between atoms: _287  and  _290
REMARK  116  A    between atoms: _290  and  _291
REMARK  117  A    between atoms: _296  and  _297
REMARK  118  A    between atoms: _299  and  _301
REMARK  119  A    between atoms: _301  and  _302
REMARK  120  A    between atoms: _301  and  _304
REMARK  121  A    between atoms: _304  and  _305
REMARK  122  A    between atoms: _310  and  _311
REMARK  123  A    between atoms: _313  and  _315
REMARK  124  A    between atoms: _315  and  _316
REMARK  125  A    between atoms: _315  and  _318
REMARK  126  A    between atoms: _318  and  _319
REMARK  127  A    between atoms: _319  and  _320
REMARK  128  A    between atoms: _323  and  _325
REMARK  129  A    between atoms: _325  and  _326
REMARK  130  A    between atoms: _325  and  _328
REMARK  131  A    between atoms: _328  and  _329
REMARK  132  A    between atoms: _334  and  _335
REMARK  133  A    between atoms: _337  and  _339
REMARK  134  A    between atoms: _339  and  _340
REMARK  135  A    between atoms: _339  and  _342
REMARK  136  A    between atoms: _342  and  _343
REMARK  137  A    between atoms: _348  and  _350
REMARK  138  A    between atoms: _350  and  _351
REMARK  139  A    between atoms: _350  and  _353
REMARK  140  A    between atoms: _353  and  _354
REMARK  141  A    between atoms: _357  and  _359
REMARK  142  A    between atoms: _359  and  _360
REMARK  143  A    between atoms: _359  and  _362
REMARK  144  A    between atoms: _362  and  _363
REMARK  145  A    between atoms: _368  and  _370
REMARK  146  A    between atoms: _370  and  _371
REMARK  147  A    between atoms: _370  and  _373
REMARK  148  A    between atoms: _373  and  _374
REMARK  149  A    between atoms: _384  and  _386
REMARK  150  A    between atoms: _386  and  _387
REMARK  151  A    between atoms: _386  and  _389
REMARK  152  A    between atoms: _389  and  _390
REMARK  153  A    between atoms: _396  and  _398
REMARK  154  A    between atoms: _398  and  _399
REMARK  155  A    between atoms: _398  and  _401
REMARK  156  A    between atoms: _401  and  _402
REMARK  157  A    between atoms: _405  and  _407
REMARK  158  A    between atoms: _407  and  _408
REMARK  159  A    between atoms: _407  and  _410
REMARK  160  A    between atoms: _410  and  _411
REMARK  161  A    between atoms: _414  and  _416
REMARK  162  A    between atoms: _416  and  _417
REMARK  163  A    between atoms: _416  and  _419
REMARK  164  A    between atoms: _419  and  _420
REMARK  165  A    between atoms: _420  and  _421
REMARK  166  A    between atoms: _421  and  _422
REMARK  167  A    between atoms: _431  and  _433
REMARK  168  A    between atoms: _433  and  _434
REMARK  169  A    between atoms: _433  and  _436
REMARK  170  A    between atoms: _436  and  _437
REMARK  171  A    between atoms: _442  and  _444
REMARK  172  A    between atoms: _444  and  _445
REMARK  173  A    between atoms: _444  and  _447
REMARK  174  A    between atoms: _447  and  _448
REMARK  175  A    between atoms: _449  and  _450
REMARK  176  A    between atoms: _459  and  _461
REMARK  177  A    between atoms: _461  and  _462
REMARK  178  A    between atoms: _465  and  _467
REMARK  179  A    between atoms: _467  and  _468
REMARK  180  A    between atoms: _470  and  _472
REMARK  181  A    between atoms: _472  and  _473
REMARK  182  A    between atoms: _472  and  _475
REMARK  183  A    between atoms: _475  and  _476
REMARK  184  A    between atoms: _486  and  _488
REMARK  185  A    between atoms: _488  and  _489
REMARK  186  A    between atoms: _488  and  _491
REMARK  187  A    between atoms: _491  and  _492
REMARK  188  A    between atoms: _493  and  _495
REMARK  189  A    between atoms: _495  and  _496
REMARK  190  A    between atoms: _499  and  _501
REMARK  191  A    between atoms: _501  and  _502
REMARK  192  A    between atoms: _501  and  _504
REMARK  193  A    between atoms: _504  and  _505
REMARK  194  A    between atoms: _508  and  _510
REMARK  195  A    between atoms: _510  and  _511
REMARK  196  A    between atoms: _510  and  _513
REMARK  197  A    between atoms: _513  and  _514
REMARK  198  A    between atoms: _519  and  _520
REMARK  199  A    between atoms: _522  and  _524
REMARK  200  A    between atoms: _524  and  _525
REMARK  201  A    between atoms: _524  and  _527
REMARK  202  A    between atoms: _527  and  _528
REMARK  203  A    between atoms: _530  and  _532
REMARK  204  A    between atoms: _532  and  _533
REMARK  205  A    between atoms: _532  and  _535
REMARK  206  A    between atoms: _535  and  _536
REMARK  207  A    between atoms: _542  and  _544
REMARK  208  A    between atoms: _544  and  _545
REMARK  209  A    between atoms: _544  and  _547
REMARK  210  A    between atoms: _547  and  _548
REMARK  211  A    between atoms: _551  and  _553
REMARK  212  A    between atoms: _553  and  _554
REMARK  213  A    between atoms: _553  and  _556
REMARK  214  A    between atoms: _556  and  _557
REMARK  215  A    between atoms: _559  and  _561
REMARK  216  A    between atoms: _561  and  _562
REMARK  217  A    between atoms: _561  and  _564
REMARK  218  A    between atoms: _564  and  _565
REMARK  219  A    between atoms: _570  and  _572
REMARK  220  A    between atoms: _572  and  _573
REMARK  221  A    between atoms: _572  and  _575
REMARK  222  A    between atoms: _575  and  _576
REMARK  223  A    between atoms: _581  and  _583
REMARK  224  A    between atoms: _583  and  _584
REMARK  225  A    between atoms: _583  and  _586
REMARK  226  A    between atoms: _586  and  _587
REMARK  227  A    between atoms: _590  and  _592
REMARK  228  A    between atoms: _592  and  _593
REMARK  229  A    between atoms: _596  and  _598
REMARK  230  A    between atoms: _598  and  _599
REMARK  231  A    between atoms: _598  and  _601
REMARK  232  A    between atoms: _601  and  _602
REMARK  233  A    between atoms: _607  and  _608
REMARK  234  A    between atoms: _610  and  _612
REMARK  235  A    between atoms: _612  and  _613
REMARK  236  A    between atoms: _612  and  _615
REMARK  237  A    between atoms: _615  and  _616
REMARK  238  A    between atoms: _621  and  _622
REMARK  239  A    between atoms: _624  and  _626
REMARK  240  A    between atoms: _626  and  _627
REMARK  241  A    between atoms: _626  and  _629
REMARK  242  A    between atoms: _632  and  _634
REMARK  243  A    between atoms: _634  and  _635
REMARK  244  A    between atoms: _634  and  _637
REMARK  245  A    between atoms: _637  and  _638
REMARK  246  A    between atoms: _643  and  _645
REMARK  247  A    between atoms: _645  and  _646
REMARK  248  A    between atoms: _649  and  _651
REMARK  249  A    between atoms: _651  and  _652
REMARK  250  A    between atoms: _651  and  _654
REMARK  251  A    between atoms: _654  and  _655
REMARK  252  A    between atoms: _655  and  _656
REMARK  253  A    between atoms: _656  and  _657
REMARK  254  A    between atoms: _666  and  _668
REMARK  255  A    between atoms: _668  and  _669
REMARK  256  A    between atoms: _668  and  _671
REMARK  257  A    between atoms: _671  and  _672
REMARK  258  A    between atoms: _675  and  _677
REMARK  259  A    between atoms: _677  and  _678
REMARK  260  A    between atoms: _677  and  _680
REMARK  261  A    between atoms: _680  and  _681
REMARK  262  A    between atoms: _684  and  _686
REMARK  263  A    between atoms: _686  and  _687
REMARK  264  A    between atoms: _686  and  _689
REMARK  265  A    between atoms: _689  and  _690
REMARK                            x       y       z     vdW  Elec       q    Type
REMARK                         _______ _______ _______ _____ _____    ______ ____
ROOT
ATOM      1  O   HOH     1      -9.717  21.827   9.116  0.00  0.00    +0.000 OA
ENDROOT
TORSDOF 0
REMARK  Name = ../refined-set-2016/1b2h/1b2h_pocket.pdb
REMARK  265 active torsions:
REMARK  status: ('A' for Active; 'I' for Inactive)
REMARK    1  A    between atoms: _1  and  _3
REMARK    2  A    between atoms: _3  and  _4
REMARK    3  A    between atoms: _3  and  _6
REMARK    4  A    between atoms: _6  and  _7
REMARK    5  A    between atoms: _12  and  _14
REMARK    6  A    between atoms: _14  and  _15
REMARK    7  A    between atoms: _17  and  _19
REMARK    8  A    between atoms: _19  and  _20
REMARK    9  A    between atoms: _19  and  _22
REMARK   10  A    between atoms: _22  and  _23
REMARK   11  A    between atoms: _25  and  _27
REMARK   12  A    between atoms: _27  and  _28
REMARK   13  A    between atoms: _27  and  _30
REMARK   14  A    between atoms: _30  and  _31
REMARK   15  A    between atoms: _31  and  _32
REMARK   16  A    between atoms: _37  and  _39
REMARK   17  A    between atoms: _39  and  _40
REMARK   18  A    between atoms: _39  and  _42
REMARK   19  A    between atoms: _42  and  _43
REMARK   20  A    between atoms: _46  and  _48
REMARK   21  A    between atoms: _48  and  _49
REMARK   22  A    between atoms: _48  and  _51
REMARK   23  A    between atoms: _52  and  _53
REMARK   24  A    between atoms: _56  and  _58
REMARK   25  A    between atoms: _58  and  _59
REMARK   26  A    between atoms: _61  and  _63
REMARK   27  A    between atoms: _63  and  _64
REMARK   28  A    between atoms: _63  and  _66
REMARK   29  A    between atoms: _70  and  _71
REMARK   30  A    between atoms: _76  and  _78
REMARK   31  A    between atoms: _78  and  _79
REMARK   32  A    between atoms: _78  and  _81
REMARK   33  A    between atoms: _81  and  _82
REMARK   34  A    between atoms: _82  and  _83
REMARK   35  A    between atoms: _86  and  _88
REMARK   36  A    between atoms: _88  and  _89
REMARK   37  A    between atoms: _88  and  _91
REMARK   38  A    between atoms: _91  and  _92
REMARK   39  A    between atoms: _94  and  _96
REMARK   40  A    between atoms: _96  and  _97
REMARK   41  A    between atoms: _96  and  _99
REMARK   42  A    between atoms: _99  and  _100
REMARK   43  A    between atoms: _105  and  _107
REMARK   44  A    between atoms: _107  and  _108
REMARK   45  A    between atoms: _107  and  _110
REMARK   46  A    between atoms: _110  and  _111
REMARK   47  A    between atoms: _111  and  _112
REMARK   48  A    between atoms: _112  and  _113
REMARK   49  A    between atoms: _123  and  _124
REMARK   50  A    between atoms: _129  and  _131
REMARK   51  A    between atoms: _131  and  _132
REMARK   52  A    between atoms: _131  and  _134
REMARK   53  A    between atoms: _134  and  _135
REMARK   54  A    between atoms: _140  and  _141
REMARK   55  A    between atoms: _143  and  _145
REMARK   56  A    between atoms: _145  and  _146
REMARK   57  A    between atoms: _145  and  _148
REMARK   58  A    between atoms: _148  and  _149
REMARK   59  A    between atoms: _154  and  _155
REMARK   60  A    between atoms: _157  and  _159
REMARK   61  A    between atoms: _159  and  _160
REMARK   62  A    between atoms: _159  and  _162
REMARK   63  A    between atoms: _165  and  _167
REMARK   64  A    between atoms: _167  and  _168
REMARK   65  A    between atoms: _167  and  _170
REMARK   66  A    between atoms: _170  and  _171
REMARK   67  A    between atoms: _177  and  _178
REMARK   68  A    between atoms: _183  and  _185
REMARK   69  A    between atoms: _185  and  _186
REMARK   70  A    between atoms: _185  and  _188
REMARK   71  A    between atoms: _188  and  _189
REMARK   72  A    between atoms: _191  and  _193
REMARK   73  A    between atoms: _193  and  _194
REMARK   74  A    between atoms: _193  and  _196
REMARK   75  A    between atoms: _196  and  _197
REMARK   76  A    between atoms: _197  and  _198
REMARK   77  A    between atoms: _201  and  _203
REMARK   78  A    between atoms: _203  and  _204
REMARK   79  A    between atoms: _203  and  _206
REMARK   80  A    between atoms: _206  and  _207
REMARK   81  A    between atoms: _212  and  _213
REMARK   82  A    between atoms: _215  and  _217
REMARK   83  A    between atoms: _217  and  _218
REMARK   84  A    between atoms: _217  and  _220
REMARK   85  A    between atoms: _220  and  _221
REMARK   86  A    between atoms: _226  and  _228
REMARK   87  A    between atoms: _228  and  _229
REMARK   88  A    between atoms: _228  and  _231
REMARK   89  A    between atoms: _231  and  _232
REMARK   90  A    between atoms: _237  and  _239
REMARK   91  A    between atoms: _239  and  _240
REMARK   92  A    between atoms: _239  and  _242
REMARK   93  A    between atoms: _242  and  _243
REMARK   94  A    between atoms: _243  and  _244
REMARK   95  A    between atoms: _246  and  _248
REMARK   96  A    between atoms: _248  and  _249
REMARK   97  A    between atoms: _248  and  _251
REMARK   98  A    between atoms: _251  and  _252
REMARK   99  A    between atoms: _257  and  _258
REMARK  100  A    between atoms: _260  and  _262
REMARK  101  A    between atoms: _262  and  _263
REMARK  102  A    between atoms: _262  and  _265
REMARK  103  A    between atoms: _265  and  _266
REMARK  104  A    between atoms: _269  and  _271
REMARK  105  A    between atoms: _271  and  _272
REMARK  106  A    between atoms: _271  and  _274
REMARK  107  A    between atoms: _274  and  _275
REMARK  108  A    between atoms: _275  and  _492
REMARK  109  A    between atoms: _276  and  _278
REMARK  110  A    between atoms: _278  and  _279
REMARK  111  A    between atoms: _278  and  _281
REMARK  112  A    between atoms: _281  and  _282
REMARK  113  A    between atoms: _285  and  _287
REMARK  114  A    between atoms: _287  and  _288
REMARK  115  A    between atoms: _287  and  _290
REMARK  116  A    between atoms: _290  and  _291
REMARK  117  A    between atoms: _296  and  _297
REMARK  118  A    between atoms: _299  and  _301
REMARK  119  A    between atoms: _301  and  _302
REMARK  120  A    between atoms: _301  and  _304
REMARK  121  A    between atoms: _304  and  _305
REMARK  122  A    between atoms: _310  and  _311
REMARK  123  A    between atoms: _313  and  _315
REMARK  124  A    between atoms: _315  and  _316
REMARK  125  A    between atoms: _315  and  _318
REMARK  126  A    between atoms: _318  and  _319
REMARK  127  A    between atoms: _319  and  _320
REMARK  128  A    between atoms: _323  and  _325
REMARK  129  A    between atoms: _325  and  _326
REMARK  130  A    between atoms: _325  and  _328
REMARK  131  A    between atoms: _328  and  _329
REMARK  132  A    between atoms: _334  and  _335
REMARK  133  A    between atoms: _337  and  _339
REMARK  134  A    between atoms: _339  and  _340
REMARK  135  A    between atoms: _339  and  _342
REMARK  136  A    between atoms: _342  and  _343
REMARK  137  A    between atoms: _348  and  _350
REMARK  138  A    between atoms: _350  and  _351
REMARK  139  A    between atoms: _350  and  _353
REMARK  140  A    between atoms: _353  and  _354
REMARK  141  A    between atoms: _357  and  _359
REMARK  142  A    between atoms: _359  and  _360
REMARK  143  A    between atoms: _359  and  _362
REMARK  144  A    between atoms: _362  and  _363
REMARK  145  A    between atoms: _368  and  _370
REMARK  146  A    between atoms: _370  and  _371
REMARK  147  A    between atoms: _370  and  _373
REMARK  148  A    between atoms: _373  and  _374
REMARK  149  A    between atoms: _384  and  _386
REMARK  150  A    between atoms: _386  and  _387
REMARK  151  A    between atoms: _386  and  _389
REMARK  152  A    between atoms: _389  and  _390
REMARK  153  A    between atoms: _396  and  _398
REMARK  154  A    between atoms: _398  and  _399
REMARK  155  A    between atoms: _398  and  _401
REMARK  156  A    between atoms: _401  and  _402
REMARK  157  A    between atoms: _405  and  _407
REMARK  158  A    between atoms: _407  and  _408
REMARK  159  A    between atoms: _407  and  _410
REMARK  160  A    between atoms: _410  and  _411
REMARK  161  A    between atoms: _414  and  _416
REMARK  162  A    between atoms: _416  and  _417
REMARK  163  A    between atoms: _416  and  _419
REMARK  164  A    between atoms: _419  and  _420
REMARK  165  A    between atoms: _420  and  _421
REMARK  166  A    between atoms: _421  and  _422
REMARK  167  A    between atoms: _431  and  _433
REMARK  168  A    between atoms: _433  and  _434
REMARK  169  A    between atoms: _433  and  _436
REMARK  170  A    between atoms: _436  and  _437
REMARK  171  A    between atoms: _442  and  _444
REMARK  172  A    between atoms: _444  and  _445
REMARK  173  A    between atoms: _444  and  _447
REMARK  174  A    between atoms: _447  and  _448
REMARK  175  A    between atoms: _449  and  _450
REMARK  176  A    between atoms: _459  and  _461
REMARK  177  A    between atoms: _461  and  _462
REMARK  178  A    between atoms: _465  and  _467
REMARK  179  A    between atoms: _467  and  _468
REMARK  180  A    between atoms: _470  and  _472
REMARK  181  A    between atoms: _472  and  _473
REMARK  182  A    between atoms: _472  and  _475
REMARK  183  A    between atoms: _475  and  _476
REMARK  184  A    between atoms: _486  and  _488
REMARK  185  A    between atoms: _488  and  _489
REMARK  186  A    between atoms: _488  and  _491
REMARK  187  A    between atoms: _491  and  _492
REMARK  188  A    between atoms: _493  and  _495
REMARK  189  A    between atoms: _495  and  _496
REMARK  190  A    between atoms: _499  and  _501
REMARK  191  A    between atoms: _501  and  _502
REMARK  192  A    between atoms: _501  and  _504
REMARK  193  A    between atoms: _504  and  _505
REMARK  194  A    between atoms: _508  and  _510
REMARK  195  A    between atoms: _510  and  _511
REMARK  196  A    between atoms: _510  and  _513
REMARK  197  A    between atoms: _513  and  _514
REMARK  198  A    between atoms: _519  and  _520
REMARK  199  A    between atoms: _522  and  _524
REMARK  200  A    between atoms: _524  and  _525
REMARK  201  A    between atoms: _524  and  _527
REMARK  202  A    between atoms: _527  and  _528
REMARK  203  A    between atoms: _530  and  _532
REMARK  204  A    between atoms: _532  and  _533
REMARK  205  A    between atoms: _532  and  _535
REMARK  206  A    between atoms: _535  and  _536
REMARK  207  A    between atoms: _542  and  _544
REMARK  208  A    between atoms: _544  and  _545
REMARK  209  A    between atoms: _544  and  _547
REMARK  210  A    between atoms: _547  and  _548
REMARK  211  A    between atoms: _551  and  _553
REMARK  212  A    between atoms: _553  and  _554
REMARK  213  A    between atoms: _553  and  _556
REMARK  214  A    between atoms: _556  and  _557
REMARK  215  A    between atoms: _559  and  _561
REMARK  216  A    between atoms: _561  and  _562
REMARK  217  A    between atoms: _561  and  _564
REMARK  218  A    between atoms: _564  and  _565
REMARK  219  A    between atoms: _570  and  _572
REMARK  220  A    between atoms: _572  and  _573
REMARK  221  A    between atoms: _572  and  _575
REMARK  222  A    between atoms: _575  and  _576
REMARK  223  A    between atoms: _581  and  _583
REMARK  224  A    between atoms: _583  and  _584
REMARK  225  A    between atoms: _583  and  _586
REMARK  226  A    between atoms: _586  and  _587
REMARK  227  A    between atoms: _590  and  _592
REMARK  228  A    between atoms: _592  and  _593
REMARK  229  A    between atoms: _596  and  _598
REMARK  230  A    between atoms: _598  and  _599
REMARK  231  A    between atoms: _598  and  _601
REMARK  232  A    between atoms: _601  and  _602
REMARK  233  A    between atoms: _607  and  _608
REMARK  234  A    between atoms: _610  and  _612
REMARK  235  A    between atoms: _612  and  _613
REMARK  236  A    between atoms: _612  and  _615
REMARK  237  A    between atoms: _615  and  _616
REMARK  238  A    between atoms: _621  and  _622
REMARK  239  A    between atoms: _624  and  _626
REMARK  240  A    between atoms: _626  and  _627
REMARK  241  A    between atoms: _626  and  _629
REMARK  242  A    between atoms: _632  and  _634
REMARK  243  A    between atoms: _634  and  _635
REMARK  244  A    between atoms: _634  and  _637
REMARK  245  A    between atoms: _637  and  _638
REMARK  246  A    between atoms: _643  and  _645
REMARK  247  A    between atoms: _645  and  _646
REMARK  248  A    between atoms: _649  and  _651
REMARK  249  A    between atoms: _651  and  _652
REMARK  250  A    between atoms: _651  and  _654
REMARK  251  A    between atoms: _654  and  _655
REMARK  252  A    between atoms: _655  and  _656
REMARK  253  A    between atoms: _656  and  _657
REMARK  254  A    between atoms: _666  and  _668
REMARK  255  A    between atoms: _668  and  _669
REMARK  256  A    between atoms: _668  and  _671
REMARK  257  A    between atoms: _671  and  _672
REMARK  258  A    between atoms: _675  and  _677
REMARK  259  A    between atoms: _677  and  _678
REMARK  260  A    between atoms: _677  and  _680
REMARK  261  A    between atoms: _680  and  _681
REMARK  262  A    between atoms: _684  and  _686
REMARK  263  A    between atoms: _686  and  _687
REMARK  264  A    between atoms: _686  and  _689
REMARK  265  A    between atoms: _689  and  _690
REMARK                            x       y       z     vdW  Elec       q    Type
REMARK                         _______ _______ _______ _____ _____    ______ ____
ROOT
ATOM      1  O   HOH     1      11.267  13.759  16.826  0.00  0.00    +0.000 OA
ENDROOT
TORSDOF 0
REMARK  Name = ../refined-set-2016/1b2h/1b2h_pocket.pdb
REMARK  265 active torsions:
REMARK  status: ('A' for Active; 'I' for Inactive)
REMARK    1  A    between atoms: _1  and  _3
REMARK    2  A    between atoms: _3  and  _4
REMARK    3  A    between atoms: _3  and  _6
REMARK    4  A    between atoms: _6  and  _7
REMARK    5  A    between atoms: _12  and  _14
REMARK    6  A    between atoms: _14  and  _15
REMARK    7  A    between atoms: _17  and  _19
REMARK    8  A    between atoms: _19  and  _20
REMARK    9  A    between atoms: _19  and  _22
REMARK   10  A    between atoms: _22  and  _23
REMARK   11  A    between atoms: _25  and  _27
REMARK   12  A    between atoms: _27  and  _28
REMARK   13  A    between atoms: _27  and  _30
REMARK   14  A    between atoms: _30  and  _31
REMARK   15  A    between atoms: _31  and  _32
REMARK   16  A    between atoms: _37  and  _39
REMARK   17  A    between atoms: _39  and  _40
REMARK   18  A    between atoms: _39  and  _42
REMARK   19  A    between atoms: _42  and  _43
REMARK   20  A    between atoms: _46  and  _48
REMARK   21  A    between atoms: _48  and  _49
REMARK   22  A    between atoms: _48  and  _51
REMARK   23  A    between atoms: _52  and  _53
REMARK   24  A    between atoms: _56  and  _58
REMARK   25  A    between atoms: _58  and  _59
REMARK   26  A    between atoms: _61  and  _63
REMARK   27  A    between atoms: _63  and  _64
REMARK   28  A    between atoms: _63  and  _66
REMARK   29  A    between atoms: _70  and  _71
REMARK   30  A    between atoms: _76  and  _78
REMARK   31  A    between atoms: _78  and  _79
REMARK   32  A    between atoms: _78  and  _81
REMARK   33  A    between atoms: _81  and  _82
REMARK   34  A    between atoms: _82  and  _83
REMARK   35  A    between atoms: _86  and  _88
REMARK   36  A    between atoms: _88  and  _89
REMARK   37  A    between atoms: _88  and  _91
REMARK   38  A    between atoms: _91  and  _92
REMARK   39  A    between atoms: _94  and  _96
REMARK   40  A    between atoms: _96  and  _97
REMARK   41  A    between atoms: _96  and  _99
REMARK   42  A    between atoms: _99  and  _100
REMARK   43  A    between atoms: _105  and  _107
REMARK   44  A    between atoms: _107  and  _108
REMARK   45  A    between atoms: _107  and  _110
REMARK   46  A    between atoms: _110  and  _111
REMARK   47  A    between atoms: _111  and  _112
REMARK   48  A    between atoms: _112  and  _113
REMARK   49  A    between atoms: _123  and  _124
REMARK   50  A    between atoms: _129  and  _131
REMARK   51  A    between atoms: _131  and  _132
REMARK   52  A    between atoms: _131  and  _134
REMARK   53  A    between atoms: _134  and  _135
REMARK   54  A    between atoms: _140  and  _141
REMARK   55  A    between atoms: _143  and  _145
REMARK   56  A    between atoms: _145  and  _146
REMARK   57  A    between atoms: _145  and  _148
REMARK   58  A    between atoms: _148  and  _149
REMARK   59  A    between atoms: _154  and  _155
REMARK   60  A    between atoms: _157  and  _159
REMARK   61  A    between atoms: _159  and  _160
REMARK   62  A    between atoms: _159  and  _162
REMARK   63  A    between atoms: _165  and  _167
REMARK   64  A    between atoms: _167  and  _168
REMARK   65  A    between atoms: _167  and  _170
REMARK   66  A    between atoms: _170  and  _171
REMARK   67  A    between atoms: _177  and  _178
REMARK   68  A    between atoms: _183  and  _185
REMARK   69  A    between atoms: _185  and  _186
REMARK   70  A    between atoms: _185  and  _188
REMARK   71  A    between atoms: _188  and  _189
REMARK   72  A    between atoms: _191  and  _193
REMARK   73  A    between atoms: _193  and  _194
REMARK   74  A    between atoms: _193  and  _196
REMARK   75  A    between atoms: _196  and  _197
REMARK   76  A    between atoms: _197  and  _198
REMARK   77  A    between atoms: _201  and  _203
REMARK   78  A    between atoms: _203  and  _204
REMARK   79  A    between atoms: _203  and  _206
REMARK   80  A    between atoms: _206  and  _207
REMARK   81  A    between atoms: _212  and  _213
REMARK   82  A    between atoms: _215  and  _217
REMARK   83  A    between atoms: _217  and  _218
REMARK   84  A    between atoms: _217  and  _220
REMARK   85  A    between atoms: _220  and  _221
REMARK   86  A    between atoms: _226  and  _228
REMARK   87  A    between atoms: _228  and  _229
REMARK   88  A    between atoms: _228  and  _231
REMARK   89  A    between atoms: _231  and  _232
REMARK   90  A    between atoms: _237  and  _239
REMARK   91  A    between atoms: _239  and  _240
REMARK   92  A    between atoms: _239  and  _242
REMARK   93  A    between atoms: _242  and  _243
REMARK   94  A    between atoms: _243  and  _244
REMARK   95  A    between atoms: _246  and  _248
REMARK   96  A    between atoms: _248  and  _249
REMARK   97  A    between atoms: _248  and  _251
REMARK   98  A    between atoms: _251  and  _252
REMARK   99  A    between atoms: _257  and  _258
REMARK  100  A    between atoms: _260  and  _262
REMARK  101  A    between atoms: _262  and  _263
REMARK  102  A    between atoms: _262  and  _265
REMARK  103  A    between atoms: _265  and  _266
REMARK  104  A    between atoms: _269  and  _271
REMARK  105  A    between atoms: _271  and  _272
REMARK  106  A    between atoms: _271  and  _274
REMARK  107  A    between atoms: _274  and  _275
REMARK  108  A    between atoms: _275  and  _492
REMARK  109  A    between atoms: _276  and  _278
REMARK  110  A    between atoms: _278  and  _279
REMARK  111  A    between atoms: _278  and  _281
REMARK  112  A    between atoms: _281  and  _282
REMARK  113  A    between atoms: _285  and  _287
REMARK  114  A    between atoms: _287  and  _288
REMARK  115  A    between atoms: _287  and  _290
REMARK  116  A    between atoms: _290  and  _291
REMARK  117  A    between atoms: _296  and  _297
REMARK  118  A    between atoms: _299  and  _301
REMARK  119  A    between atoms: _301  and  _302
REMARK  120  A    between atoms: _301  and  _304
REMARK  121  A    between atoms: _304  and  _305
REMARK  122  A    between atoms: _310  and  _311
REMARK  123  A    between atoms: _313  and  _315
REMARK  124  A    between atoms: _315  and  _316
REMARK  125  A    between atoms: _315  and  _318
REMARK  126  A    between atoms: _318  and  _319
REMARK  127  A    between atoms: _319  and  _320
REMARK  128  A    between atoms: _323  and  _325
REMARK  129  A    between atoms: _325  and  _326
REMARK  130  A    between atoms: _325  and  _328
REMARK  131  A    between atoms: _328  and  _329
REMARK  132  A    between atoms: _334  and  _335
REMARK  133  A    between atoms: _337  and  _339
REMARK  134  A    between atoms: _339  and  _340
REMARK  135  A    between atoms: _339  and  _342
REMARK  136  A    between atoms: _342  and  _343
REMARK  137  A    between atoms: _348  and  _350
REMARK  138  A    between atoms: _350  and  _351
REMARK  139  A    between atoms: _350  and  _353
REMARK  140  A    between atoms: _353  and  _354
REMARK  141  A    between atoms: _357  and  _359
REMARK  142  A    between atoms: _359  and  _360
REMARK  143  A    between atoms: _359  and  _362
REMARK  144  A    between atoms: _362  and  _363
REMARK  145  A    between atoms: _368  and  _370
REMARK  146  A    between atoms: _370  and  _371
REMARK  147  A    between atoms: _370  and  _373
REMARK  148  A    between atoms: _373  and  _374
REMARK  149  A    between atoms: _384  and  _386
REMARK  150  A    between atoms: _386  and  _387
REMARK  151  A    between atoms: _386  and  _389
REMARK  152  A    between atoms: _389  and  _390
REMARK  153  A    between atoms: _396  and  _398
REMARK  154  A    between atoms: _398  and  _399
REMARK  155  A    between atoms: _398  and  _401
REMARK  156  A    between atoms: _401  and  _402
REMARK  157  A    between atoms: _405  and  _407
REMARK  158  A    between atoms: _407  and  _408
REMARK  159  A    between atoms: _407  and  _410
REMARK  160  A    between atoms: _410  and  _411
REMARK  161  A    between atoms: _414  and  _416
REMARK  162  A    between atoms: _416  and  _417
REMARK  163  A    between atoms: _416  and  _419
REMARK  164  A    between atoms: _419  and  _420
REMARK  165  A    between atoms: _420  and  _421
REMARK  166  A    between atoms: _421  and  _422
REMARK  167  A    between atoms: _431  and  _433
REMARK  168  A    between atoms: _433  and  _434
REMARK  169  A    between atoms: _433  and  _436
REMARK  170  A    between atoms: _436  and  _437
REMARK  171  A    between atoms: _442  and  _444
REMARK  172  A    between atoms: _444  and  _445
REMARK  173  A    between atoms: _444  and  _447
REMARK  174  A    between atoms: _447  and  _448
REMARK  175  A    between atoms: _449  and  _450
REMARK  176  A    between atoms: _459  and  _461
REMARK  177  A    between atoms: _461  and  _462
REMARK  178  A    between atoms: _465  and  _467
REMARK  179  A    between atoms: _467  and  _468
REMARK  180  A    between atoms: _470  and  _472
REMARK  181  A    between atoms: _472  and  _473
REMARK  182  A    between atoms: _472  and  _475
REMARK  183  A    between atoms: _475  and  _476
REMARK  184  A    between atoms: _486  and  _488
REMARK  185  A    between atoms: _488  and  _489
REMARK  186  A    between atoms: _488  and  _491
REMARK  187  A    between atoms: _491  and  _492
REMARK  188  A    between atoms: _493  and  _495
REMARK  189  A    between atoms: _495  and  _496
REMARK  190  A    between atoms: _499  and  _501
REMARK  191  A    between atoms: _501  and  _502
REMARK  192  A    between atoms: _501  and  _504
REMARK  193  A    between atoms: _504  and  _505
REMARK  194  A    between atoms: _508  and  _510
REMARK  195  A    between atoms: _510  and  _511
REMARK  196  A    between atoms: _510  and  _513
REMARK  197  A    between atoms: _513  and  _514
REMARK  198  A    between atoms: _519  and  _520
REMARK  199  A    between atoms: _522  and  _524
REMARK  200  A    between atoms: _524  and  _525
REMARK  201  A    between atoms: _524  and  _527
REMARK  202  A    between atoms: _527  and  _528
REMARK  203  A    between atoms: _530  and  _532
REMARK  204  A    between atoms: _532  and  _533
REMARK  205  A    between atoms: _532  and  _535
REMARK  206  A    between atoms: _535  and  _536
REMARK  207  A    between atoms: _542  and  _544
REMARK  208  A    between atoms: _544  and  _545
REMARK  209  A    between atoms: _544  and  _547
REMARK  210  A    between atoms: _547  and  _548
REMARK  211  A    between atoms: _551  and  _553
REMARK  212  A    between atoms: _553  and  _554
REMARK  213  A    between atoms: _553  and  _556
REMARK  214  A    between atoms: _556  and  _557
REMARK  215  A    between atoms: _559  and  _561
REMARK  216  A    between atoms: _561  and  _562
REMARK  217  A    between atoms: _561  and  _564
REMARK  218  A    between atoms: _564  and  _565
REMARK  219  A    between atoms: _570  and  _572
REMARK  220  A    between atoms: _572  and  _573
REMARK  221  A    between atoms: _572  and  _575
REMARK  222  A    between atoms: _575  and  _576
REMARK  223  A    between atoms: _581  and  _583
REMARK  224  A    between atoms: _583  and  _584
REMARK  225  A    between atoms: _583  and  _586
REMARK  226  A    between atoms: _586  and  _587
REMARK  227  A    between atoms: _590  and  _592
REMARK  228  A    between atoms: _592  and  _593
REMARK  229  A    between atoms: _596  and  _598
REMARK  230  A    between atoms: _598  and  _599
REMARK  231  A    between atoms: _598  and  _601
REMARK  232  A    between atoms: _601  and  _602
REMARK  233  A    between atoms: _607  and  _608
REMARK  234  A    between atoms: _610  and  _612
REMARK  235  A    between atoms: _612  and  _613
REMARK  236  A    between atoms: _612  and  _615
REMARK  237  A    between atoms: _615  and  _616
REMARK  238  A    between atoms: _621  and  _622
REMARK  239  A    between atoms: _624  and  _626
REMARK  240  A    between atoms: _626  and  _627
REMARK  241  A    between atoms: _626  and  _629
REMARK  242  A    between atoms: _632  and  _634
REMARK  243  A    between atoms: _634  and  _635
REMARK  244  A    between atoms: _634  and  _637
REMARK  245  A    between atoms: _637  and  _638
REMARK  246  A    between atoms: _643  and  _645
REMARK  247  A    between atoms: _645  and  _646
REMARK  248  A    between atoms: _649  and  _651
REMARK  249  A    between atoms: _651  and  _652
REMARK  250  A    between atoms: _651  and  _654
REMARK  251  A    between atoms: _654  and  _655
REMARK  252  A    between atoms: _655  and  _656
REMARK  253  A    between atoms: _656  and  _657
REMARK  254  A    between atoms: _666  and  _668
REMARK  255  A    between atoms: _668  and  _669
REMARK  256  A    between atoms: _668  and  _671
REMARK  257  A    between atoms: _671  and  _672
REMARK  258  A    between atoms: _675  and  _677
REMARK  259  A    between atoms: _677  and  _678
REMARK  260  A    between atoms: _677  and  _680
REMARK  261  A    between atoms: _680  and  _681
REMARK  262  A    between atoms: _684  and  _686
REMARK  263  A    between atoms: _686  and  _687
REMARK  264  A    between atoms: _686  and  _689
REMARK  265  A    between atoms: _689  and  _690
REMARK                            x       y       z     vdW  Elec       q    Type
REMARK                         _______ _______ _______ _____ _____    ______ ____
ROOT
ATOM      1  O   HOH     1     -10.056  16.500  14.441  0.00  0.00    +0.000 OA
ENDROOT
TORSDOF 0
REMARK  Name = ../refined-set-2016/1b2h/1b2h_pocket.pdb
REMARK  265 active torsions:
REMARK  status: ('A' for Active; 'I' for Inactive)
REMARK    1  A    between atoms: _1  and  _3
REMARK    2  A    between atoms: _3  and  _4
REMARK    3  A    between atoms: _3  and  _6
REMARK    4  A    between atoms: _6  and  _7
REMARK    5  A    between atoms: _12  and  _14
REMARK    6  A    between atoms: _14  and  _15
REMARK    7  A    between atoms: _17  and  _19
REMARK    8  A    between atoms: _19  and  _20
REMARK    9  A    between atoms: _19  and  _22
REMARK   10  A    between atoms: _22  and  _23
REMARK   11  A    between atoms: _25  and  _27
REMARK   12  A    between atoms: _27  and  _28
REMARK   13  A    between atoms: _27  and  _30
REMARK   14  A    between atoms: _30  and  _31
REMARK   15  A    between atoms: _31  and  _32
REMARK   16  A    between atoms: _37  and  _39
REMARK   17  A    between atoms: _39  and  _40
REMARK   18  A    between atoms: _39  and  _42
REMARK   19  A    between atoms: _42  and  _43
REMARK   20  A    between atoms: _46  and  _48
REMARK   21  A    between atoms: _48  and  _49
REMARK   22  A    between atoms: _48  and  _51
REMARK   23  A    between atoms: _52  and  _53
REMARK   24  A    between atoms: _56  and  _58
REMARK   25  A    between atoms: _58  and  _59
REMARK   26  A    between atoms: _61  and  _63
REMARK   27  A    between atoms: _63  and  _64
REMARK   28  A    between atoms: _63  and  _66
REMARK   29  A    between atoms: _70  and  _71
REMARK   30  A    between atoms: _76  and  _78
REMARK   31  A    between atoms: _78  and  _79
REMARK   32  A    between atoms: _78  and  _81
REMARK   33  A    between atoms: _81  and  _82
REMARK   34  A    between atoms: _82  and  _83
REMARK   35  A    between atoms: _86  and  _88
REMARK   36  A    between atoms: _88  and  _89
REMARK   37  A    between atoms: _88  and  _91
REMARK   38  A    between atoms: _91  and  _92
REMARK   39  A    between atoms: _94  and  _96
REMARK   40  A    between atoms: _96  and  _97
REMARK   41  A    between atoms: _96  and  _99
REMARK   42  A    between atoms: _99  and  _100
REMARK   43  A    between atoms: _105  and  _107
REMARK   44  A    between atoms: _107  and  _108
REMARK   45  A    between atoms: _107  and  _110
REMARK   46  A    between atoms: _110  and  _111
REMARK   47  A    between atoms: _111  and  _112
REMARK   48  A    between atoms: _112  and  _113
REMARK   49  A    between atoms: _123  and  _124
REMARK   50  A    between atoms: _129  and  _131
REMARK   51  A    between atoms: _131  and  _132
REMARK   52  A    between atoms: _131  and  _134
REMARK   53  A    between atoms: _134  and  _135
REMARK   54  A    between atoms: _140  and  _141
REMARK   55  A    between atoms: _143  and  _145
REMARK   56  A    between atoms: _145  and  _146
REMARK   57  A    between atoms: _145  and  _148
REMARK   58  A    between atoms: _148  and  _149
REMARK   59  A    between atoms: _154  and  _155
REMARK   60  A    between atoms: _157  and  _159
REMARK   61  A    between atoms: _159  and  _160
REMARK   62  A    between atoms: _159  and  _162
REMARK   63  A    between atoms: _165  and  _167
REMARK   64  A    between atoms: _167  and  _168
REMARK   65  A    between atoms: _167  and  _170
REMARK   66  A    between atoms: _170  and  _171
REMARK   67  A    between atoms: _177  and  _178
REMARK   68  A    between atoms: _183  and  _185
REMARK   69  A    between atoms: _185  and  _186
REMARK   70  A    between atoms: _185  and  _188
REMARK   71  A    between atoms: _188  and  _189
REMARK   72  A    between atoms: _191  and  _193
REMARK   73  A    between atoms: _193  and  _194
REMARK   74  A    between atoms: _193  and  _196
REMARK   75  A    between atoms: _196  and  _197
REMARK   76  A    between atoms: _197  and  _198
REMARK   77  A    between atoms: _201  and  _203
REMARK   78  A    between atoms: _203  and  _204
REMARK   79  A    between atoms: _203  and  _206
REMARK   80  A    between atoms: _206  and  _207
REMARK   81  A    between atoms: _212  and  _213
REMARK   82  A    between atoms: _215  and  _217
REMARK   83  A    between atoms: _217  and  _218
REMARK   84  A    between atoms: _217  and  _220
REMARK   85  A    between atoms: _220  and  _221
REMARK   86  A    between atoms: _226  and  _228
REMARK   87  A    between atoms: _228  and  _229
REMARK   88  A    between atoms: _228  and  _231
REMARK   89  A    between atoms: _231  and  _232
REMARK   90  A    between atoms: _237  and  _239
REMARK   91  A    between atoms: _239  and  _240
REMARK   92  A    between atoms: _239  and  _242
REMARK   93  A    between atoms: _242  and  _243
REMARK   94  A    between atoms: _243  and  _244
REMARK   95  A    between atoms: _246  and  _248
REMARK   96  A    between atoms: _248  and  _249
REMARK   97  A    between atoms: _248  and  _251
REMARK   98  A    between atoms: _251  and  _252
REMARK   99  A    between atoms: _257  and  _258
REMARK  100  A    between atoms: _260  and  _262
REMARK  101  A    between atoms: _262  and  _263
REMARK  102  A    between atoms: _262  and  _265
REMARK  103  A    between atoms: _265  and  _266
REMARK  104  A    between atoms: _269  and  _271
REMARK  105  A    between atoms: _271  and  _272
REMARK  106  A    between atoms: _271  and  _274
REMARK  107  A    between atoms: _274  and  _275
REMARK  108  A    between atoms: _275  and  _492
REMARK  109  A    between atoms: _276  and  _278
REMARK  110  A    between atoms: _278  and  _279
REMARK  111  A    between atoms: _278  and  _281
REMARK  112  A    between atoms: _281  and  _282
REMARK  113  A    between atoms: _285  and  _287
REMARK  114  A    between atoms: _287  and  _288
REMARK  115  A    between atoms: _287  and  _290
REMARK  116  A    between atoms: _290  and  _291
REMARK  117  A    between atoms: _296  and  _297
REMARK  118  A    between atoms: _299  and  _301
REMARK  119  A    between atoms: _301  and  _302
REMARK  120  A    between atoms: _301  and  _304
REMARK  121  A    between atoms: _304  and  _305
REMARK  122  A    between atoms: _310  and  _311
REMARK  123  A    between atoms: _313  and  _315
REMARK  124  A    between atoms: _315  and  _316
REMARK  125  A    between atoms: _315  and  _318
REMARK  126  A    between atoms: _318  and  _319
REMARK  127  A    between atoms: _319  and  _320
REMARK  128  A    between atoms: _323  and  _325
REMARK  129  A    between atoms: _325  and  _326
REMARK  130  A    between atoms: _325  and  _328
REMARK  131  A    between atoms: _328  and  _329
REMARK  132  A    between atoms: _334  and  _335
REMARK  133  A    between atoms: _337  and  _339
REMARK  134  A    between atoms: _339  and  _340
REMARK  135  A    between atoms: _339  and  _342
REMARK  136  A    between atoms: _342  and  _343
REMARK  137  A    between atoms: _348  and  _350
REMARK  138  A    between atoms: _350  and  _351
REMARK  139  A    between atoms: _350  and  _353
REMARK  140  A    between atoms: _353  and  _354
REMARK  141  A    between atoms: _357  and  _359
REMARK  142  A    between atoms: _359  and  _360
REMARK  143  A    between atoms: _359  and  _362
REMARK  144  A    between atoms: _362  and  _363
REMARK  145  A    between atoms: _368  and  _370
REMARK  146  A    between atoms: _370  and  _371
REMARK  147  A    between atoms: _370  and  _373
REMARK  148  A    between atoms: _373  and  _374
REMARK  149  A    between atoms: _384  and  _386
REMARK  150  A    between atoms: _386  and  _387
REMARK  151  A    between atoms: _386  and  _389
REMARK  152  A    between atoms: _389  and  _390
REMARK  153  A    between atoms: _396  and  _398
REMARK  154  A    between atoms: _398  and  _399
REMARK  155  A    between atoms: _398  and  _401
REMARK  156  A    between atoms: _401  and  _402
REMARK  157  A    between atoms: _405  and  _407
REMARK  158  A    between atoms: _407  and  _408
REMARK  159  A    between atoms: _407  and  _410
REMARK  160  A    between atoms: _410  and  _411
REMARK  161  A    between atoms: _414  and  _416
REMARK  162  A    between atoms: _416  and  _417
REMARK  163  A    between atoms: _416  and  _419
REMARK  164  A    between atoms: _419  and  _420
REMARK  165  A    between atoms: _420  and  _421
REMARK  166  A    between atoms: _421  and  _422
REMARK  167  A    between atoms: _431  and  _433
REMARK  168  A    between atoms: _433  and  _434
REMARK  169  A    between atoms: _433  and  _436
REMARK  170  A    between atoms: _436  and  _437
REMARK  171  A    between atoms: _442  and  _444
REMARK  172  A    between atoms: _444  and  _445
REMARK  173  A    between atoms: _444  and  _447
REMARK  174  A    between atoms: _447  and  _448
REMARK  175  A    between atoms: _449  and  _450
REMARK  176  A    between atoms: _459  and  _461
REMARK  177  A    between atoms: _461  and  _462
REMARK  178  A    between atoms: _465  and  _467
REMARK  179  A    between atoms: _467  and  _468
REMARK  180  A    between atoms: _470  and  _472
REMARK  181  A    between atoms: _472  and  _473
REMARK  182  A    between atoms: _472  and  _475
REMARK  183  A    between atoms: _475  and  _476
REMARK  184  A    between atoms: _486  and  _488
REMARK  185  A    between atoms: _488  and  _489
REMARK  186  A    between atoms: _488  and  _491
REMARK  187  A    between atoms: _491  and  _492
REMARK  188  A    between atoms: _493  and  _495
REMARK  189  A    between atoms: _495  and  _496
REMARK  190  A    between atoms: _499  and  _501
REMARK  191  A    between atoms: _501  and  _502
REMARK  192  A    between atoms: _501  and  _504
REMARK  193  A    between atoms: _504  and  _505
REMARK  194  A    between atoms: _508  and  _510
REMARK  195  A    between atoms: _510  and  _511
REMARK  196  A    between atoms: _510  and  _513
REMARK  197  A    between atoms: _513  and  _514
REMARK  198  A    between atoms: _519  and  _520
REMARK  199  A    between atoms: _522  and  _524
REMARK  200  A    between atoms: _524  and  _525
REMARK  201  A    between atoms: _524  and  _527
REMARK  202  A    between atoms: _527  and  _528
REMARK  203  A    between atoms: _530  and  _532
REMARK  204  A    between atoms: _532  and  _533
REMARK  205  A    between atoms: _532  and  _535
REMARK  206  A    between atoms: _535  and  _536
REMARK  207  A    between atoms: _542  and  _544
REMARK  208  A    between atoms: _544  and  _545
REMARK  209  A    between atoms: _544  and  _547
REMARK  210  A    between atoms: _547  and  _548
REMARK  211  A    between atoms: _551  and  _553
REMARK  212  A    between atoms: _553  and  _554
REMARK  213  A    between atoms: _553  and  _556
REMARK  214  A    between atoms: _556  and  _557
REMARK  215  A    between atoms: _559  and  _561
REMARK  216  A    between atoms: _561  and  _562
REMARK  217  A    between atoms: _561  and  _564
REMARK  218  A    between atoms: _564  and  _565
REMARK  219  A    between atoms: _570  and  _572
REMARK  220  A    between atoms: _572  and  _573
REMARK  221  A    between atoms: _572  and  _575
REMARK  222  A    between atoms: _575  and  _576
REMARK  223  A    between atoms: _581  and  _583
REMARK  224  A    between atoms: _583  and  _584
REMARK  225  A    between atoms: _583  and  _586
REMARK  226  A    between atoms: _586  and  _587
REMARK  227  A    between atoms: _590  and  _592
REMARK  228  A    between atoms: _592  and  _593
REMARK  229  A    between atoms: _596  and  _598
REMARK  230  A    between atoms: _598  and  _599
REMARK  231  A    between atoms: _598  and  _601
REMARK  232  A    between atoms: _601  and  _602
REMARK  233  A    between atoms: _607  and  _608
REMARK  234  A    between atoms: _610  and  _612
REMARK  235  A    between atoms: _612  and  _613
REMARK  236  A    between atoms: _612  and  _615
REMARK  237  A    between atoms: _615  and  _616
REMARK  238  A    between atoms: _621  and  _622
REMARK  239  A    between atoms: _624  and  _626
REMARK  240  A    between atoms: _626  and  _627
REMARK  241  A    between atoms: _626  and  _629
REMARK  242  A    between atoms: _632  and  _634
REMARK  243  A    between atoms: _634  and  _635
REMARK  244  A    between atoms: _634  and  _637
REMARK  245  A    between atoms: _637  and  _638
REMARK  246  A    between atoms: _643  and  _645
REMARK  247  A    between atoms: _645  and  _646
REMARK  248  A    between atoms: _649  and  _651
REMARK  249  A    between atoms: _651  and  _652
REMARK  250  A    between atoms: _651  and  _654
REMARK  251  A    between atoms: _654  and  _655
REMARK  252  A    between atoms: _655  and  _656
REMARK  253  A    between atoms: _656  and  _657
REMARK  254  A    between atoms: _666  and  _668
REMARK  255  A    between atoms: _668  and  _669
REMARK  256  A    between atoms: _668  and  _671
REMARK  257  A    between atoms: _671  and  _672
REMARK  258  A    between atoms: _675  and  _677
REMARK  259  A    between atoms: _677  and  _678
REMARK  260  A    between atoms: _677  and  _680
REMARK  261  A    between atoms: _680  and  _681
REMARK  262  A    between atoms: _684  and  _686
REMARK  263  A    between atoms: _686  and  _687
REMARK  264  A    between atoms: _686  and  _689
REMARK  265  A    between atoms: _689  and  _690
REMARK                            x       y       z     vdW  Elec       q    Type
REMARK                         _______ _______ _______ _____ _____    ______ ____
ROOT
ATOM      1  O   HOH     1      -7.982  23.878   9.732  0.00  0.00    +0.000 OA
ENDROOT
TORSDOF 0
REMARK  Name = ../refined-set-2016/1b2h/1b2h_pocket.pdb
REMARK  265 active torsions:
REMARK  status: ('A' for Active; 'I' for Inactive)
REMARK    1  A    between atoms: _1  and  _3
REMARK    2  A    between atoms: _3  and  _4
REMARK    3  A    between atoms: _3  and  _6
REMARK    4  A    between atoms: _6  and  _7
REMARK    5  A    between atoms: _12  and  _14
REMARK    6  A    between atoms: _14  and  _15
REMARK    7  A    between atoms: _17  and  _19
REMARK    8  A    between atoms: _19  and  _20
REMARK    9  A    between atoms: _19  and  _22
REMARK   10  A    between atoms: _22  and  _23
REMARK   11  A    between atoms: _25  and  _27
REMARK   12  A    between atoms: _27  and  _28
REMARK   13  A    between atoms: _27  and  _30
REMARK   14  A    between atoms: _30  and  _31
REMARK   15  A    between atoms: _31  and  _32
REMARK   16  A    between atoms: _37  and  _39
REMARK   17  A    between atoms: _39  and  _40
REMARK   18  A    between atoms: _39  and  _42
REMARK   19  A    between atoms: _42  and  _43
REMARK   20  A    between atoms: _46  and  _48
REMARK   21  A    between atoms: _48  and  _49
REMARK   22  A    between atoms: _48  and  _51
REMARK   23  A    between atoms: _52  and  _53
REMARK   24  A    between atoms: _56  and  _58
REMARK   25  A    between atoms: _58  and  _59
REMARK   26  A    between atoms: _61  and  _63
REMARK   27  A    between atoms: _63  and  _64
REMARK   28  A    between atoms: _63  and  _66
REMARK   29  A    between atoms: _70  and  _71
REMARK   30  A    between atoms: _76  and  _78
REMARK   31  A    between atoms: _78  and  _79
REMARK   32  A    between atoms: _78  and  _81
REMARK   33  A    between atoms: _81  and  _82
REMARK   34  A    between atoms: _82  and  _83
REMARK   35  A    between atoms: _86  and  _88
REMARK   36  A    between atoms: _88  and  _89
REMARK   37  A    between atoms: _88  and  _91
REMARK   38  A    between atoms: _91  and  _92
REMARK   39  A    between atoms: _94  and  _96
REMARK   40  A    between atoms: _96  and  _97
REMARK   41  A    between atoms: _96  and  _99
REMARK   42  A    between atoms: _99  and  _100
REMARK   43  A    between atoms: _105  and  _107
REMARK   44  A    between atoms: _107  and  _108
REMARK   45  A    between atoms: _107  and  _110
REMARK   46  A    between atoms: _110  and  _111
REMARK   47  A    between atoms: _111  and  _112
REMARK   48  A    between atoms: _112  and  _113
REMARK   49  A    between atoms: _123  and  _124
REMARK   50  A    between atoms: _129  and  _131
REMARK   51  A    between atoms: _131  and  _132
REMARK   52  A    between atoms: _131  and  _134
REMARK   53  A    between atoms: _134  and  _135
REMARK   54  A    between atoms: _140  and  _141
REMARK   55  A    between atoms: _143  and  _145
REMARK   56  A    between atoms: _145  and  _146
REMARK   57  A    between atoms: _145  and  _148
REMARK   58  A    between atoms: _148  and  _149
REMARK   59  A    between atoms: _154  and  _155
REMARK   60  A    between atoms: _157  and  _159
REMARK   61  A    between atoms: _159  and  _160
REMARK   62  A    between atoms: _159  and  _162
REMARK   63  A    between atoms: _165  and  _167
REMARK   64  A    between atoms: _167  and  _168
REMARK   65  A    between atoms: _167  and  _170
REMARK   66  A    between atoms: _170  and  _171
REMARK   67  A    between atoms: _177  and  _178
REMARK   68  A    between atoms: _183  and  _185
REMARK   69  A    between atoms: _185  and  _186
REMARK   70  A    between atoms: _185  and  _188
REMARK   71  A    between atoms: _188  and  _189
REMARK   72  A    between atoms: _191  and  _193
REMARK   73  A    between atoms: _193  and  _194
REMARK   74  A    between atoms: _193  and  _196
REMARK   75  A    between atoms: _196  and  _197
REMARK   76  A    between atoms: _197  and  _198
REMARK   77  A    between atoms: _201  and  _203
REMARK   78  A    between atoms: _203  and  _204
REMARK   79  A    between atoms: _203  and  _206
REMARK   80  A    between atoms: _206  and  _207
REMARK   81  A    between atoms: _212  and  _213
REMARK   82  A    between atoms: _215  and  _217
REMARK   83  A    between atoms: _217  and  _218
REMARK   84  A    between atoms: _217  and  _220
REMARK   85  A    between atoms: _220  and  _221
REMARK   86  A    between atoms: _226  and  _228
REMARK   87  A    between atoms: _228  and  _229
REMARK   88  A    between atoms: _228  and  _231
REMARK   89  A    between atoms: _231  and  _232
REMARK   90  A    between atoms: _237  and  _239
REMARK   91  A    between atoms: _239  and  _240
REMARK   92  A    between atoms: _239  and  _242
REMARK   93  A    between atoms: _242  and  _243
REMARK   94  A    between atoms: _243  and  _244
REMARK   95  A    between atoms: _246  and  _248
REMARK   96  A    between atoms: _248  and  _249
REMARK   97  A    between atoms: _248  and  _251
REMARK   98  A    between atoms: _251  and  _252
REMARK   99  A    between atoms: _257  and  _258
REMARK  100  A    between atoms: _260  and  _262
REMARK  101  A    between atoms: _262  and  _263
REMARK  102  A    between atoms: _262  and  _265
REMARK  103  A    between atoms: _265  and  _266
REMARK  104  A    between atoms: _269  and  _271
REMARK  105  A    between atoms: _271  and  _272
REMARK  106  A    between atoms: _271  and  _274
REMARK  107  A    between atoms: _274  and  _275
REMARK  108  A    between atoms: _275  and  _492
REMARK  109  A    between atoms: _276  and  _278
REMARK  110  A    between atoms: _278  and  _279
REMARK  111  A    between atoms: _278  and  _281
REMARK  112  A    between atoms: _281  and  _282
REMARK  113  A    between atoms: _285  and  _287
REMARK  114  A    between atoms: _287  and  _288
REMARK  115  A    between atoms: _287  and  _290
REMARK  116  A    between atoms: _290  and  _291
REMARK  117  A    between atoms: _296  and  _297
REMARK  118  A    between atoms: _299  and  _301
REMARK  119  A    between atoms: _301  and  _302
REMARK  120  A    between atoms: _301  and  _304
REMARK  121  A    between atoms: _304  and  _305
REMARK  122  A    between atoms: _310  and  _311
REMARK  123  A    between atoms: _313  and  _315
REMARK  124  A    between atoms: _315  and  _316
REMARK  125  A    between atoms: _315  and  _318
REMARK  126  A    between atoms: _318  and  _319
REMARK  127  A    between atoms: _319  and  _320
REMARK  128  A    between atoms: _323  and  _325
REMARK  129  A    between atoms: _325  and  _326
REMARK  130  A    between atoms: _325  and  _328
REMARK  131  A    between atoms: _328  and  _329
REMARK  132  A    between atoms: _334  and  _335
REMARK  133  A    between atoms: _337  and  _339
REMARK  134  A    between atoms: _339  and  _340
REMARK  135  A    between atoms: _339  and  _342
REMARK  136  A    between atoms: _342  and  _343
REMARK  137  A    between atoms: _348  and  _350
REMARK  138  A    between atoms: _350  and  _351
REMARK  139  A    between atoms: _350  and  _353
REMARK  140  A    between atoms: _353  and  _354
REMARK  141  A    between atoms: _357  and  _359
REMARK  142  A    between atoms: _359  and  _360
REMARK  143  A    between atoms: _359  and  _362
REMARK  144  A    between atoms: _362  and  _363
REMARK  145  A    between atoms: _368  and  _370
REMARK  146  A    between atoms: _370  and  _371
REMARK  147  A    between atoms: _370  and  _373
REMARK  148  A    between atoms: _373  and  _374
REMARK  149  A    between atoms: _384  and  _386
REMARK  150  A    between atoms: _386  and  _387
REMARK  151  A    between atoms: _386  and  _389
REMARK  152  A    between atoms: _389  and  _390
REMARK  153  A    between atoms: _396  and  _398
REMARK  154  A    between atoms: _398  and  _399
REMARK  155  A    between atoms: _398  and  _401
REMARK  156  A    between atoms: _401  and  _402
REMARK  157  A    between atoms: _405  and  _407
REMARK  158  A    between atoms: _407  and  _408
REMARK  159  A    between atoms: _407  and  _410
REMARK  160  A    between atoms: _410  and  _411
REMARK  161  A    between atoms: _414  and  _416
REMARK  162  A    between atoms: _416  and  _417
REMARK  163  A    between atoms: _416  and  _419
REMARK  164  A    between atoms: _419  and  _420
REMARK  165  A    between atoms: _420  and  _421
REMARK  166  A    between atoms: _421  and  _422
REMARK  167  A    between atoms: _431  and  _433
REMARK  168  A    between atoms: _433  and  _434
REMARK  169  A    between atoms: _433  and  _436
REMARK  170  A    between atoms: _436  and  _437
REMARK  171  A    between atoms: _442  and  _444
REMARK  172  A    between atoms: _444  and  _445
REMARK  173  A    between atoms: _444  and  _447
REMARK  174  A    between atoms: _447  and  _448
REMARK  175  A    between atoms: _449  and  _450
REMARK  176  A    between atoms: _459  and  _461
REMARK  177  A    between atoms: _461  and  _462
REMARK  178  A    between atoms: _465  and  _467
REMARK  179  A    between atoms: _467  and  _468
REMARK  180  A    between atoms: _470  and  _472
REMARK  181  A    between atoms: _472  and  _473
REMARK  182  A    between atoms: _472  and  _475
REMARK  183  A    between atoms: _475  and  _476
REMARK  184  A    between atoms: _486  and  _488
REMARK  185  A    between atoms: _488  and  _489
REMARK  186  A    between atoms: _488  and  _491
REMARK  187  A    between atoms: _491  and  _492
REMARK  188  A    between atoms: _493  and  _495
REMARK  189  A    between atoms: _495  and  _496
REMARK  190  A    between atoms: _499  and  _501
REMARK  191  A    between atoms: _501  and  _502
REMARK  192  A    between atoms: _501  and  _504
REMARK  193  A    between atoms: _504  and  _505
REMARK  194  A    between atoms: _508  and  _510
REMARK  195  A    between atoms: _510  and  _511
REMARK  196  A    between atoms: _510  and  _513
REMARK  197  A    between atoms: _513  and  _514
REMARK  198  A    between atoms: _519  and  _520
REMARK  199  A    between atoms: _522  and  _524
REMARK  200  A    between atoms: _524  and  _525
REMARK  201  A    between atoms: _524  and  _527
REMARK  202  A    between atoms: _527  and  _528
REMARK  203  A    between atoms: _530  and  _532
REMARK  204  A    between atoms: _532  and  _533
REMARK  205  A    between atoms: _532  and  _535
REMARK  206  A    between atoms: _535  and  _536
REMARK  207  A    between atoms: _542  and  _544
REMARK  208  A    between atoms: _544  and  _545
REMARK  209  A    between atoms: _544  and  _547
REMARK  210  A    between atoms: _547  and  _548
REMARK  211  A    between atoms: _551  and  _553
REMARK  212  A    between atoms: _553  and  _554
REMARK  213  A    between atoms: _553  and  _556
REMARK  214  A    between atoms: _556  and  _557
REMARK  215  A    between atoms: _559  and  _561
REMARK  216  A    between atoms: _561  and  _562
REMARK  217  A    between atoms: _561  and  _564
REMARK  218  A    between atoms: _564  and  _565
REMARK  219  A    between atoms: _570  and  _572
REMARK  220  A    between atoms: _572  and  _573
REMARK  221  A    between atoms: _572  and  _575
REMARK  222  A    between atoms: _575  and  _576
REMARK  223  A    between atoms: _581  and  _583
REMARK  224  A    between atoms: _583  and  _584
REMARK  225  A    between atoms: _583  and  _586
REMARK  226  A    between atoms: _586  and  _587
REMARK  227  A    between atoms: _590  and  _592
REMARK  228  A    between atoms: _592  and  _593
REMARK  229  A    between atoms: _596  and  _598
REMARK  230  A    between atoms: _598  and  _599
REMARK  231  A    between atoms: _598  and  _601
REMARK  232  A    between atoms: _601  and  _602
REMARK  233  A    between atoms: _607  and  _608
REMARK  234  A    between atoms: _610  and  _612
REMARK  235  A    between atoms: _612  and  _613
REMARK  236  A    between atoms: _612  and  _615
REMARK  237  A    between atoms: _615  and  _616
REMARK  238  A    between atoms: _621  and  _622
REMARK  239  A    between atoms: _624  and  _626
REMARK  240  A    between atoms: _626  and  _627
REMARK  241  A    between atoms: _626  and  _629
REMARK  242  A    between atoms: _632  and  _634
REMARK  243  A    between atoms: _634  and  _635
REMARK  244  A    between atoms: _634  and  _637
REMARK  245  A    between atoms: _637  and  _638
REMARK  246  A    between atoms: _643  and  _645
REMARK  247  A    between atoms: _645  and  _646
REMARK  248  A    between atoms: _649  and  _651
REMARK  249  A    between atoms: _651  and  _652
REMARK  250  A    between atoms: _651  and  _654
REMARK  251  A    between atoms: _654  and  _655
REMARK  252  A    between atoms: _655  and  _656
REMARK  253  A    between atoms: _656  and  _657
REMARK  254  A    between atoms: _666  and  _668
REMARK  255  A    between atoms: _668  and  _669
REMARK  256  A    between atoms: _668  and  _671
REMARK  257  A    between atoms: _671  and  _672
REMARK  258  A    between atoms: _675  and  _677
REMARK  259  A    between atoms: _677  and  _678
REMARK  260  A    between atoms: _677  and  _680
REMARK  261  A    between atoms: _680  and  _681
REMARK  262  A    between atoms: _684  and  _686
REMARK  263  A    between atoms: _686  and  _687
REMARK  264  A    between atoms: _686  and  _689
REMARK  265  A    between atoms: _689  and  _690
REMARK                            x       y       z     vdW  Elec       q    Type
REMARK                         _______ _______ _______ _____ _____    ______ ____
ROOT
ATOM      1  O   HOH     1      -5.001  25.756  12.315  0.00  0.00    +0.000 OA
ENDROOT
TORSDOF 0
REMARK  Name = ../refined-set-2016/1b2h/1b2h_pocket.pdb
REMARK  265 active torsions:
REMARK  status: ('A' for Active; 'I' for Inactive)
REMARK    1  A    between atoms: _1  and  _3
REMARK    2  A    between atoms: _3  and  _4
REMARK    3  A    between atoms: _3  and  _6
REMARK    4  A    between atoms: _6  and  _7
REMARK    5  A    between atoms: _12  and  _14
REMARK    6  A    between atoms: _14  and  _15
REMARK    7  A    between atoms: _17  and  _19
REMARK    8  A    between atoms: _19  and  _20
REMARK    9  A    between atoms: _19  and  _22
REMARK   10  A    between atoms: _22  and  _23
REMARK   11  A    between atoms: _25  and  _27
REMARK   12  A    between atoms: _27  and  _28
REMARK   13  A    between atoms: _27  and  _30
REMARK   14  A    between atoms: _30  and  _31
REMARK   15  A    between atoms: _31  and  _32
REMARK   16  A    between atoms: _37  and  _39
REMARK   17  A    between atoms: _39  and  _40
REMARK   18  A    between atoms: _39  and  _42
REMARK   19  A    between atoms: _42  and  _43
REMARK   20  A    between atoms: _46  and  _48
REMARK   21  A    between atoms: _48  and  _49
REMARK   22  A    between atoms: _48  and  _51
REMARK   23  A    between atoms: _52  and  _53
REMARK   24  A    between atoms: _56  and  _58
REMARK   25  A    between atoms: _58  and  _59
REMARK   26  A    between atoms: _61  and  _63
REMARK   27  A    between atoms: _63  and  _64
REMARK   28  A    between atoms: _63  and  _66
REMARK   29  A    between atoms: _70  and  _71
REMARK   30  A    between atoms: _76  and  _78
REMARK   31  A    between atoms: _78  and  _79
REMARK   32  A    between atoms: _78  and  _81
REMARK   33  A    between atoms: _81  and  _82
REMARK   34  A    between atoms: _82  and  _83
REMARK   35  A    between atoms: _86  and  _88
REMARK   36  A    between atoms: _88  and  _89
REMARK   37  A    between atoms: _88  and  _91
REMARK   38  A    between atoms: _91  and  _92
REMARK   39  A    between atoms: _94  and  _96
REMARK   40  A    between atoms: _96  and  _97
REMARK   41  A    between atoms: _96  and  _99
REMARK   42  A    between atoms: _99  and  _100
REMARK   43  A    between atoms: _105  and  _107
REMARK   44  A    between atoms: _107  and  _108
REMARK   45  A    between atoms: _107  and  _110
REMARK   46  A    between atoms: _110  and  _111
REMARK   47  A    between atoms: _111  and  _112
REMARK   48  A    between atoms: _112  and  _113
REMARK   49  A    between atoms: _123  and  _124
REMARK   50  A    between atoms: _129  and  _131
REMARK   51  A    between atoms: _131  and  _132
REMARK   52  A    between atoms: _131  and  _134
REMARK   53  A    between atoms: _134  and  _135
REMARK   54  A    between atoms: _140  and  _141
REMARK   55  A    between atoms: _143  and  _145
REMARK   56  A    between atoms: _145  and  _146
REMARK   57  A    between atoms: _145  and  _148
REMARK   58  A    between atoms: _148  and  _149
REMARK   59  A    between atoms: _154  and  _155
REMARK   60  A    between atoms: _157  and  _159
REMARK   61  A    between atoms: _159  and  _160
REMARK   62  A    between atoms: _159  and  _162
REMARK   63  A    between atoms: _165  and  _167
REMARK   64  A    between atoms: _167  and  _168
REMARK   65  A    between atoms: _167  and  _170
REMARK   66  A    between atoms: _170  and  _171
REMARK   67  A    between atoms: _177  and  _178
REMARK   68  A    between atoms: _183  and  _185
REMARK   69  A    between atoms: _185  and  _186
REMARK   70  A    between atoms: _185  and  _188
REMARK   71  A    between atoms: _188  and  _189
REMARK   72  A    between atoms: _191  and  _193
REMARK   73  A    between atoms: _193  and  _194
REMARK   74  A    between atoms: _193  and  _196
REMARK   75  A    between atoms: _196  and  _197
REMARK   76  A    between atoms: _197  and  _198
REMARK   77  A    between atoms: _201  and  _203
REMARK   78  A    between atoms: _203  and  _204
REMARK   79  A    between atoms: _203  and  _206
REMARK   80  A    between atoms: _206  and  _207
REMARK   81  A    between atoms: _212  and  _213
REMARK   82  A    between atoms: _215  and  _217
REMARK   83  A    between atoms: _217  and  _218
REMARK   84  A    between atoms: _217  and  _220
REMARK   85  A    between atoms: _220  and  _221
REMARK   86  A    between atoms: _226  and  _228
REMARK   87  A    between atoms: _228  and  _229
REMARK   88  A    between atoms: _228  and  _231
REMARK   89  A    between atoms: _231  and  _232
REMARK   90  A    between atoms: _237  and  _239
REMARK   91  A    between atoms: _239  and  _240
REMARK   92  A    between atoms: _239  and  _242
REMARK   93  A    between atoms: _242  and  _243
REMARK   94  A    between atoms: _243  and  _244
REMARK   95  A    between atoms: _246  and  _248
REMARK   96  A    between atoms: _248  and  _249
REMARK   97  A    between atoms: _248  and  _251
REMARK   98  A    between atoms: _251  and  _252
REMARK   99  A    between atoms: _257  and  _258
REMARK  100  A    between atoms: _260  and  _262
REMARK  101  A    between atoms: _262  and  _263
REMARK  102  A    between atoms: _262  and  _265
REMARK  103  A    between atoms: _265  and  _266
REMARK  104  A    between atoms: _269  and  _271
REMARK  105  A    between atoms: _271  and  _272
REMARK  106  A    between atoms: _271  and  _274
REMARK  107  A    between atoms: _274  and  _275
REMARK  108  A    between atoms: _275  and  _492
REMARK  109  A    between atoms: _276  and  _278
REMARK  110  A    between atoms: _278  and  _279
REMARK  111  A    between atoms: _278  and  _281
REMARK  112  A    between atoms: _281  and  _282
REMARK  113  A    between atoms: _285  and  _287
REMARK  114  A    between atoms: _287  and  _288
REMARK  115  A    between atoms: _287  and  _290
REMARK  116  A    between atoms: _290  and  _291
REMARK  117  A    between atoms: _296  and  _297
REMARK  118  A    between atoms: _299  and  _301
REMARK  119  A    between atoms: _301  and  _302
REMARK  120  A    between atoms: _301  and  _304
REMARK  121  A    between atoms: _304  and  _305
REMARK  122  A    between atoms: _310  and  _311
REMARK  123  A    between atoms: _313  and  _315
REMARK  124  A    between atoms: _315  and  _316
REMARK  125  A    between atoms: _315  and  _318
REMARK  126  A    between atoms: _318  and  _319
REMARK  127  A    between atoms: _319  and  _320
REMARK  128  A    between atoms: _323  and  _325
REMARK  129  A    between atoms: _325  and  _326
REMARK  130  A    between atoms: _325  and  _328
REMARK  131  A    between atoms: _328  and  _329
REMARK  132  A    between atoms: _334  and  _335
REMARK  133  A    between atoms: _337  and  _339
REMARK  134  A    between atoms: _339  and  _340
REMARK  135  A    between atoms: _339  and  _342
REMARK  136  A    between atoms: _342  and  _343
REMARK  137  A    between atoms: _348  and  _350
REMARK  138  A    between atoms: _350  and  _351
REMARK  139  A    between atoms: _350  and  _353
REMARK  140  A    between atoms: _353  and  _354
REMARK  141  A    between atoms: _357  and  _359
REMARK  142  A    between atoms: _359  and  _360
REMARK  143  A    between atoms: _359  and  _362
REMARK  144  A    between atoms: _362  and  _363
REMARK  145  A    between atoms: _368  and  _370
REMARK  146  A    between atoms: _370  and  _371
REMARK  147  A    between atoms: _370  and  _373
REMARK  148  A    between atoms: _373  and  _374
REMARK  149  A    between atoms: _384  and  _386
REMARK  150  A    between atoms: _386  and  _387
REMARK  151  A    between atoms: _386  and  _389
REMARK  152  A    between atoms: _389  and  _390
REMARK  153  A    between atoms: _396  and  _398
REMARK  154  A    between atoms: _398  and  _399
REMARK  155  A    between atoms: _398  and  _401
REMARK  156  A    between atoms: _401  and  _402
REMARK  157  A    between atoms: _405  and  _407
REMARK  158  A    between atoms: _407  and  _408
REMARK  159  A    between atoms: _407  and  _410
REMARK  160  A    between atoms: _410  and  _411
REMARK  161  A    between atoms: _414  and  _416
REMARK  162  A    between atoms: _416  and  _417
REMARK  163  A    between atoms: _416  and  _419
REMARK  164  A    between atoms: _419  and  _420
REMARK  165  A    between atoms: _420  and  _421
REMARK  166  A    between atoms: _421  and  _422
REMARK  167  A    between atoms: _431  and  _433
REMARK  168  A    between atoms: _433  and  _434
REMARK  169  A    between atoms: _433  and  _436
REMARK  170  A    between atoms: _436  and  _437
REMARK  171  A    between atoms: _442  and  _444
REMARK  172  A    between atoms: _444  and  _445
REMARK  173  A    between atoms: _444  and  _447
REMARK  174  A    between atoms: _447  and  _448
REMARK  175  A    between atoms: _449  and  _450
REMARK  176  A    between atoms: _459  and  _461
REMARK  177  A    between atoms: _461  and  _462
REMARK  178  A    between atoms: _465  and  _467
REMARK  179  A    between atoms: _467  and  _468
REMARK  180  A    between atoms: _470  and  _472
REMARK  181  A    between atoms: _472  and  _473
REMARK  182  A    between atoms: _472  and  _475
REMARK  183  A    between atoms: _475  and  _476
REMARK  184  A    between atoms: _486  and  _488
REMARK  185  A    between atoms: _488  and  _489
REMARK  186  A    between atoms: _488  and  _491
REMARK  187  A    between atoms: _491  and  _492
REMARK  188  A    between atoms: _493  and  _495
REMARK  189  A    between atoms: _495  and  _496
REMARK  190  A    between atoms: _499  and  _501
REMARK  191  A    between atoms: _501  and  _502
REMARK  192  A    between atoms: _501  and  _504
REMARK  193  A    between atoms: _504  and  _505
REMARK  194  A    between atoms: _508  and  _510
REMARK  195  A    between atoms: _510  and  _511
REMARK  196  A    between atoms: _510  and  _513
REMARK  197  A    between atoms: _513  and  _514
REMARK  198  A    between atoms: _519  and  _520
REMARK  199  A    between atoms: _522  and  _524
REMARK  200  A    between atoms: _524  and  _525
REMARK  201  A    between atoms: _524  and  _527
REMARK  202  A    between atoms: _527  and  _528
REMARK  203  A    between atoms: _530  and  _532
REMARK  204  A    between atoms: _532  and  _533
REMARK  205  A    between atoms: _532  and  _535
REMARK  206  A    between atoms: _535  and  _536
REMARK  207  A    between atoms: _542  and  _544
REMARK  208  A    between atoms: _544  and  _545
REMARK  209  A    between atoms: _544  and  _547
REMARK  210  A    between atoms: _547  and  _548
REMARK  211  A    between atoms: _551  and  _553
REMARK  212  A    between atoms: _553  and  _554
REMARK  213  A    between atoms: _553  and  _556
REMARK  214  A    between atoms: _556  and  _557
REMARK  215  A    between atoms: _559  and  _561
REMARK  216  A    between atoms: _561  and  _562
REMARK  217  A    between atoms: _561  and  _564
REMARK  218  A    between atoms: _564  and  _565
REMARK  219  A    between atoms: _570  and  _572
REMARK  220  A    between atoms: _572  and  _573
REMARK  221  A    between atoms: _572  and  _575
REMARK  222  A    between atoms: _575  and  _576
REMARK  223  A    between atoms: _581  and  _583
REMARK  224  A    between atoms: _583  and  _584
REMARK  225  A    between atoms: _583  and  _586
REMARK  226  A    between atoms: _586  and  _587
REMARK  227  A    between atoms: _590  and  _592
REMARK  228  A    between atoms: _592  and  _593
REMARK  229  A    between atoms: _596  and  _598
REMARK  230  A    between atoms: _598  and  _599
REMARK  231  A    between atoms: _598  and  _601
REMARK  232  A    between atoms: _601  and  _602
REMARK  233  A    between atoms: _607  and  _608
REMARK  234  A    between atoms: _610  and  _612
REMARK  235  A    between atoms: _612  and  _613
REMARK  236  A    between atoms: _612  and  _615
REMARK  237  A    between atoms: _615  and  _616
REMARK  238  A    between atoms: _621  and  _622
REMARK  239  A    between atoms: _624  and  _626
REMARK  240  A    between atoms: _626  and  _627
REMARK  241  A    between atoms: _626  and  _629
REMARK  242  A    between atoms: _632  and  _634
REMARK  243  A    between atoms: _634  and  _635
REMARK  244  A    between atoms: _634  and  _637
REMARK  245  A    between atoms: _637  and  _638
REMARK  246  A    between atoms: _643  and  _645
REMARK  247  A    between atoms: _645  and  _646
REMARK  248  A    between atoms: _649  and  _651
REMARK  249  A    between atoms: _651  and  _652
REMARK  250  A    between atoms: _651  and  _654
REMARK  251  A    between atoms: _654  and  _655
REMARK  252  A    between atoms: _655  and  _656
REMARK  253  A    between atoms: _656  and  _657
REMARK  254  A    between atoms: _666  and  _668
REMARK  255  A    between atoms: _668  and  _669
REMARK  256  A    between atoms: _668  and  _671
REMARK  257  A    between atoms: _671  and  _672
REMARK  258  A    between atoms: _675  and  _677
REMARK  259  A    between atoms: _677  and  _678
REMARK  260  A    between atoms: _677  and  _680
REMARK  261  A    between atoms: _680  and  _681
REMARK  262  A    between atoms: _684  and  _686
REMARK  263  A    between atoms: _686  and  _687
REMARK  264  A    between atoms: _686  and  _689
REMARK  265  A    between atoms: _689  and  _690
REMARK                            x       y       z     vdW  Elec       q    Type
REMARK                         _______ _______ _______ _____ _____    ______ ____
ROOT
ATOM      1  O   HOH     1       1.577  14.782  11.302  0.00  0.00    +0.000 OA
ENDROOT
TORSDOF 0
REMARK  Name = ../refined-set-2016/1b2h/1b2h_pocket.pdb
REMARK  265 active torsions:
REMARK  status: ('A' for Active; 'I' for Inactive)
REMARK    1  A    between atoms: _1  and  _3
REMARK    2  A    between atoms: _3  and  _4
REMARK    3  A    between atoms: _3  and  _6
REMARK    4  A    between atoms: _6  and  _7
REMARK    5  A    between atoms: _12  and  _14
REMARK    6  A    between atoms: _14  and  _15
REMARK    7  A    between atoms: _17  and  _19
REMARK    8  A    between atoms: _19  and  _20
REMARK    9  A    between atoms: _19  and  _22
REMARK   10  A    between atoms: _22  and  _23
REMARK   11  A    between atoms: _25  and  _27
REMARK   12  A    between atoms: _27  and  _28
REMARK   13  A    between atoms: _27  and  _30
REMARK   14  A    between atoms: _30  and  _31
REMARK   15  A    between atoms: _31  and  _32
REMARK   16  A    between atoms: _37  and  _39
REMARK   17  A    between atoms: _39  and  _40
REMARK   18  A    between atoms: _39  and  _42
REMARK   19  A    between atoms: _42  and  _43
REMARK   20  A    between atoms: _46  and  _48
REMARK   21  A    between atoms: _48  and  _49
REMARK   22  A    between atoms: _48  and  _51
REMARK   23  A    between atoms: _52  and  _53
REMARK   24  A    between atoms: _56  and  _58
REMARK   25  A    between atoms: _58  and  _59
REMARK   26  A    between atoms: _61  and  _63
REMARK   27  A    between atoms: _63  and  _64
REMARK   28  A    between atoms: _63  and  _66
REMARK   29  A    between atoms: _70  and  _71
REMARK   30  A    between atoms: _76  and  _78
REMARK   31  A    between atoms: _78  and  _79
REMARK   32  A    between atoms: _78  and  _81
REMARK   33  A    between atoms: _81  and  _82
REMARK   34  A    between atoms: _82  and  _83
REMARK   35  A    between atoms: _86  and  _88
REMARK   36  A    between atoms: _88  and  _89
REMARK   37  A    between atoms: _88  and  _91
REMARK   38  A    between atoms: _91  and  _92
REMARK   39  A    between atoms: _94  and  _96
REMARK   40  A    between atoms: _96  and  _97
REMARK   41  A    between atoms: _96  and  _99
REMARK   42  A    between atoms: _99  and  _100
REMARK   43  A    between atoms: _105  and  _107
REMARK   44  A    between atoms: _107  and  _108
REMARK   45  A    between atoms: _107  and  _110
REMARK   46  A    between atoms: _110  and  _111
REMARK   47  A    between atoms: _111  and  _112
REMARK   48  A    between atoms: _112  and  _113
REMARK   49  A    between atoms: _123  and  _124
REMARK   50  A    between atoms: _129  and  _131
REMARK   51  A    between atoms: _131  and  _132
REMARK   52  A    between atoms: _131  and  _134
REMARK   53  A    between atoms: _134  and  _135
REMARK   54  A    between atoms: _140  and  _141
REMARK   55  A    between atoms: _143  and  _145
REMARK   56  A    between atoms: _145  and  _146
REMARK   57  A    between atoms: _145  and  _148
REMARK   58  A    between atoms: _148  and  _149
REMARK   59  A    between atoms: _154  and  _155
REMARK   60  A    between atoms: _157  and  _159
REMARK   61  A    between atoms: _159  and  _160
REMARK   62  A    between atoms: _159  and  _162
REMARK   63  A    between atoms: _165  and  _167
REMARK   64  A    between atoms: _167  and  _168
REMARK   65  A    between atoms: _167  and  _170
REMARK   66  A    between atoms: _170  and  _171
REMARK   67  A    between atoms: _177  and  _178
REMARK   68  A    between atoms: _183  and  _185
REMARK   69  A    between atoms: _185  and  _186
REMARK   70  A    between atoms: _185  and  _188
REMARK   71  A    between atoms: _188  and  _189
REMARK   72  A    between atoms: _191  and  _193
REMARK   73  A    between atoms: _193  and  _194
REMARK   74  A    between atoms: _193  and  _196
REMARK   75  A    between atoms: _196  and  _197
REMARK   76  A    between atoms: _197  and  _198
REMARK   77  A    between atoms: _201  and  _203
REMARK   78  A    between atoms: _203  and  _204
REMARK   79  A    between atoms: _203  and  _206
REMARK   80  A    between atoms: _206  and  _207
REMARK   81  A    between atoms: _212  and  _213
REMARK   82  A    between atoms: _215  and  _217
REMARK   83  A    between atoms: _217  and  _218
REMARK   84  A    between atoms: _217  and  _220
REMARK   85  A    between atoms: _220  and  _221
REMARK   86  A    between atoms: _226  and  _228
REMARK   87  A    between atoms: _228  and  _229
REMARK   88  A    between atoms: _228  and  _231
REMARK   89  A    between atoms: _231  and  _232
REMARK   90  A    between atoms: _237  and  _239
REMARK   91  A    between atoms: _239  and  _240
REMARK   92  A    between atoms: _239  and  _242
REMARK   93  A    between atoms: _242  and  _243
REMARK   94  A    between atoms: _243  and  _244
REMARK   95  A    between atoms: _246  and  _248
REMARK   96  A    between atoms: _248  and  _249
REMARK   97  A    between atoms: _248  and  _251
REMARK   98  A    between atoms: _251  and  _252
REMARK   99  A    between atoms: _257  and  _258
REMARK  100  A    between atoms: _260  and  _262
REMARK  101  A    between atoms: _262  and  _263
REMARK  102  A    between atoms: _262  and  _265
REMARK  103  A    between atoms: _265  and  _266
REMARK  104  A    between atoms: _269  and  _271
REMARK  105  A    between atoms: _271  and  _272
REMARK  106  A    between atoms: _271  and  _274
REMARK  107  A    between atoms: _274  and  _275
REMARK  108  A    between atoms: _275  and  _492
REMARK  109  A    between atoms: _276  and  _278
REMARK  110  A    between atoms: _278  and  _279
REMARK  111  A    between atoms: _278  and  _281
REMARK  112  A    between atoms: _281  and  _282
REMARK  113  A    between atoms: _285  and  _287
REMARK  114  A    between atoms: _287  and  _288
REMARK  115  A    between atoms: _287  and  _290
REMARK  116  A    between atoms: _290  and  _291
REMARK  117  A    between atoms: _296  and  _297
REMARK  118  A    between atoms: _299  and  _301
REMARK  119  A    between atoms: _301  and  _302
REMARK  120  A    between atoms: _301  and  _304
REMARK  121  A    between atoms: _304  and  _305
REMARK  122  A    between atoms: _310  and  _311
REMARK  123  A    between atoms: _313  and  _315
REMARK  124  A    between atoms: _315  and  _316
REMARK  125  A    between atoms: _315  and  _318
REMARK  126  A    between atoms: _318  and  _319
REMARK  127  A    between atoms: _319  and  _320
REMARK  128  A    between atoms: _323  and  _325
REMARK  129  A    between atoms: _325  and  _326
REMARK  130  A    between atoms: _325  and  _328
REMARK  131  A    between atoms: _328  and  _329
REMARK  132  A    between atoms: _334  and  _335
REMARK  133  A    between atoms: _337  and  _339
REMARK  134  A    between atoms: _339  and  _340
REMARK  135  A    between atoms: _339  and  _342
REMARK  136  A    between atoms: _342  and  _343
REMARK  137  A    between atoms: _348  and  _350
REMARK  138  A    between atoms: _350  and  _351
REMARK  139  A    between atoms: _350  and  _353
REMARK  140  A    between atoms: _353  and  _354
REMARK  141  A    between atoms: _357  and  _359
REMARK  142  A    between atoms: _359  and  _360
REMARK  143  A    between atoms: _359  and  _362
REMARK  144  A    between atoms: _362  and  _363
REMARK  145  A    between atoms: _368  and  _370
REMARK  146  A    between atoms: _370  and  _371
REMARK  147  A    between atoms: _370  and  _373
REMARK  148  A    between atoms: _373  and  _374
REMARK  149  A    between atoms: _384  and  _386
REMARK  150  A    between atoms: _386  and  _387
REMARK  151  A    between atoms: _386  and  _389
REMARK  152  A    between atoms: _389  and  _390
REMARK  153  A    between atoms: _396  and  _398
REMARK  154  A    between atoms: _398  and  _399
REMARK  155  A    between atoms: _398  and  _401
REMARK  156  A    between atoms: _401  and  _402
REMARK  157  A    between atoms: _405  and  _407
REMARK  158  A    between atoms: _407  and  _408
REMARK  159  A    between atoms: _407  and  _410
REMARK  160  A    between atoms: _410  and  _411
REMARK  161  A    between atoms: _414  and  _416
REMARK  162  A    between atoms: _416  and  _417
REMARK  163  A    between atoms: _416  and  _419
REMARK  164  A    between atoms: _419  and  _420
REMARK  165  A    between atoms: _420  and  _421
REMARK  166  A    between atoms: _421  and  _422
REMARK  167  A    between atoms: _431  and  _433
REMARK  168  A    between atoms: _433  and  _434
REMARK  169  A    between atoms: _433  and  _436
REMARK  170  A    between atoms: _436  and  _437
REMARK  171  A    between atoms: _442  and  _444
REMARK  172  A    between atoms: _444  and  _445
REMARK  173  A    between atoms: _444  and  _447
REMARK  174  A    between atoms: _447  and  _448
REMARK  175  A    between atoms: _449  and  _450
REMARK  176  A    between atoms: _459  and  _461
REMARK  177  A    between atoms: _461  and  _462
REMARK  178  A    between atoms: _465  and  _467
REMARK  179  A    between atoms: _467  and  _468
REMARK  180  A    between atoms: _470  and  _472
REMARK  181  A    between atoms: _472  and  _473
REMARK  182  A    between atoms: _472  and  _475
REMARK  183  A    between atoms: _475  and  _476
REMARK  184  A    between atoms: _486  and  _488
REMARK  185  A    between atoms: _488  and  _489
REMARK  186  A    between atoms: _488  and  _491
REMARK  187  A    between atoms: _491  and  _492
REMARK  188  A    between atoms: _493  and  _495
REMARK  189  A    between atoms: _495  and  _496
REMARK  190  A    between atoms: _499  and  _501
REMARK  191  A    between atoms: _501  and  _502
REMARK  192  A    between atoms: _501  and  _504
REMARK  193  A    between atoms: _504  and  _505
REMARK  194  A    between atoms: _508  and  _510
REMARK  195  A    between atoms: _510  and  _511
REMARK  196  A    between atoms: _510  and  _513
REMARK  197  A    between atoms: _513  and  _514
REMARK  198  A    between atoms: _519  and  _520
REMARK  199  A    between atoms: _522  and  _524
REMARK  200  A    between atoms: _524  and  _525
REMARK  201  A    between atoms: _524  and  _527
REMARK  202  A    between atoms: _527  and  _528
REMARK  203  A    between atoms: _530  and  _532
REMARK  204  A    between atoms: _532  and  _533
REMARK  205  A    between atoms: _532  and  _535
REMARK  206  A    between atoms: _535  and  _536
REMARK  207  A    between atoms: _542  and  _544
REMARK  208  A    between atoms: _544  and  _545
REMARK  209  A    between atoms: _544  and  _547
REMARK  210  A    between atoms: _547  and  _548
REMARK  211  A    between atoms: _551  and  _553
REMARK  212  A    between atoms: _553  and  _554
REMARK  213  A    between atoms: _553  and  _556
REMARK  214  A    between atoms: _556  and  _557
REMARK  215  A    between atoms: _559  and  _561
REMARK  216  A    between atoms: _561  and  _562
REMARK  217  A    between atoms: _561  and  _564
REMARK  218  A    between atoms: _564  and  _565
REMARK  219  A    between atoms: _570  and  _572
REMARK  220  A    between atoms: _572  and  _573
REMARK  221  A    between atoms: _572  and  _575
REMARK  222  A    between atoms: _575  and  _576
REMARK  223  A    between atoms: _581  and  _583
REMARK  224  A    between atoms: _583  and  _584
REMARK  225  A    between atoms: _583  and  _586
REMARK  226  A    between atoms: _586  and  _587
REMARK  227  A    between atoms: _590  and  _592
REMARK  228  A    between atoms: _592  and  _593
REMARK  229  A    between atoms: _596  and  _598
REMARK  230  A    between atoms: _598  and  _599
REMARK  231  A    between atoms: _598  and  _601
REMARK  232  A    between atoms: _601  and  _602
REMARK  233  A    between atoms: _607  and  _608
REMARK  234  A    between atoms: _610  and  _612
REMARK  235  A    between atoms: _612  and  _613
REMARK  236  A    between atoms: _612  and  _615
REMARK  237  A    between atoms: _615  and  _616
REMARK  238  A    between atoms: _621  and  _622
REMARK  239  A    between atoms: _624  and  _626
REMARK  240  A    between atoms: _626  and  _627
REMARK  241  A    between atoms: _626  and  _629
REMARK  242  A    between atoms: _632  and  _634
REMARK  243  A    between atoms: _634  and  _635
REMARK  244  A    between atoms: _634  and  _637
REMARK  245  A    between atoms: _637  and  _638
REMARK  246  A    between atoms: _643  and  _645
REMARK  247  A    between atoms: _645  and  _646
REMARK  248  A    between atoms: _649  and  _651
REMARK  249  A    between atoms: _651  and  _652
REMARK  250  A    between atoms: _651  and  _654
REMARK  251  A    between atoms: _654  and  _655
REMARK  252  A    between atoms: _655  and  _656
REMARK  253  A    between atoms: _656  and  _657
REMARK  254  A    between atoms: _666  and  _668
REMARK  255  A    between atoms: _668  and  _669
REMARK  256  A    between atoms: _668  and  _671
REMARK  257  A    between atoms: _671  and  _672
REMARK  258  A    between atoms: _675  and  _677
REMARK  259  A    between atoms: _677  and  _678
REMARK  260  A    between atoms: _677  and  _680
REMARK  261  A    between atoms: _680  and  _681
REMARK  262  A    between atoms: _684  and  _686
REMARK  263  A    between atoms: _686  and  _687
REMARK  264  A    between atoms: _686  and  _689
REMARK  265  A    between atoms: _689  and  _690
REMARK                            x       y       z     vdW  Elec       q    Type
REMARK                         _______ _______ _______ _____ _____    ______ ____
ROOT
ATOM      1  O   HOH     1      -7.307  24.117  12.260  0.00  0.00    +0.000 OA
ENDROOT
TORSDOF 0
REMARK  Name = ../refined-set-2016/1b2h/1b2h_pocket.pdb
REMARK  265 active torsions:
REMARK  status: ('A' for Active; 'I' for Inactive)
REMARK    1  A    between atoms: _1  and  _3
REMARK    2  A    between atoms: _3  and  _4
REMARK    3  A    between atoms: _3  and  _6
REMARK    4  A    between atoms: _6  and  _7
REMARK    5  A    between atoms: _12  and  _14
REMARK    6  A    between atoms: _14  and  _15
REMARK    7  A    between atoms: _17  and  _19
REMARK    8  A    between atoms: _19  and  _20
REMARK    9  A    between atoms: _19  and  _22
REMARK   10  A    between atoms: _22  and  _23
REMARK   11  A    between atoms: _25  and  _27
REMARK   12  A    between atoms: _27  and  _28
REMARK   13  A    between atoms: _27  and  _30
REMARK   14  A    between atoms: _30  and  _31
REMARK   15  A    between atoms: _31  and  _32
REMARK   16  A    between atoms: _37  and  _39
REMARK   17  A    between atoms: _39  and  _40
REMARK   18  A    between atoms: _39  and  _42
REMARK   19  A    between atoms: _42  and  _43
REMARK   20  A    between atoms: _46  and  _48
REMARK   21  A    between atoms: _48  and  _49
REMARK   22  A    between atoms: _48  and  _51
REMARK   23  A    between atoms: _52  and  _53
REMARK   24  A    between atoms: _56  and  _58
REMARK   25  A    between atoms: _58  and  _59
REMARK   26  A    between atoms: _61  and  _63
REMARK   27  A    between atoms: _63  and  _64
REMARK   28  A    between atoms: _63  and  _66
REMARK   29  A    between atoms: _70  and  _71
REMARK   30  A    between atoms: _76  and  _78
REMARK   31  A    between atoms: _78  and  _79
REMARK   32  A    between atoms: _78  and  _81
REMARK   33  A    between atoms: _81  and  _82
REMARK   34  A    between atoms: _82  and  _83
REMARK   35  A    between atoms: _86  and  _88
REMARK   36  A    between atoms: _88  and  _89
REMARK   37  A    between atoms: _88  and  _91
REMARK   38  A    between atoms: _91  and  _92
REMARK   39  A    between atoms: _94  and  _96
REMARK   40  A    between atoms: _96  and  _97
REMARK   41  A    between atoms: _96  and  _99
REMARK   42  A    between atoms: _99  and  _100
REMARK   43  A    between atoms: _105  and  _107
REMARK   44  A    between atoms: _107  and  _108
REMARK   45  A    between atoms: _107  and  _110
REMARK   46  A    between atoms: _110  and  _111
REMARK   47  A    between atoms: _111  and  _112
REMARK   48  A    between atoms: _112  and  _113
REMARK   49  A    between atoms: _123  and  _124
REMARK   50  A    between atoms: _129  and  _131
REMARK   51  A    between atoms: _131  and  _132
REMARK   52  A    between atoms: _131  and  _134
REMARK   53  A    between atoms: _134  and  _135
REMARK   54  A    between atoms: _140  and  _141
REMARK   55  A    between atoms: _143  and  _145
REMARK   56  A    between atoms: _145  and  _146
REMARK   57  A    between atoms: _145  and  _148
REMARK   58  A    between atoms: _148  and  _149
REMARK   59  A    between atoms: _154  and  _155
REMARK   60  A    between atoms: _157  and  _159
REMARK   61  A    between atoms: _159  and  _160
REMARK   62  A    between atoms: _159  and  _162
REMARK   63  A    between atoms: _165  and  _167
REMARK   64  A    between atoms: _167  and  _168
REMARK   65  A    between atoms: _167  and  _170
REMARK   66  A    between atoms: _170  and  _171
REMARK   67  A    between atoms: _177  and  _178
REMARK   68  A    between atoms: _183  and  _185
REMARK   69  A    between atoms: _185  and  _186
REMARK   70  A    between atoms: _185  and  _188
REMARK   71  A    between atoms: _188  and  _189
REMARK   72  A    between atoms: _191  and  _193
REMARK   73  A    between atoms: _193  and  _194
REMARK   74  A    between atoms: _193  and  _196
REMARK   75  A    between atoms: _196  and  _197
REMARK   76  A    between atoms: _197  and  _198
REMARK   77  A    between atoms: _201  and  _203
REMARK   78  A    between atoms: _203  and  _204
REMARK   79  A    between atoms: _203  and  _206
REMARK   80  A    between atoms: _206  and  _207
REMARK   81  A    between atoms: _212  and  _213
REMARK   82  A    between atoms: _215  and  _217
REMARK   83  A    between atoms: _217  and  _218
REMARK   84  A    between atoms: _217  and  _220
REMARK   85  A    between atoms: _220  and  _221
REMARK   86  A    between atoms: _226  and  _228
REMARK   87  A    between atoms: _228  and  _229
REMARK   88  A    between atoms: _228  and  _231
REMARK   89  A    between atoms: _231  and  _232
REMARK   90  A    between atoms: _237  and  _239
REMARK   91  A    between atoms: _239  and  _240
REMARK   92  A    between atoms: _239  and  _242
REMARK   93  A    between atoms: _242  and  _243
REMARK   94  A    between atoms: _243  and  _244
REMARK   95  A    between atoms: _246  and  _248
REMARK   96  A    between atoms: _248  and  _249
REMARK   97  A    between atoms: _248  and  _251
REMARK   98  A    between atoms: _251  and  _252
REMARK   99  A    between atoms: _257  and  _258
REMARK  100  A    between atoms: _260  and  _262
REMARK  101  A    between atoms: _262  and  _263
REMARK  102  A    between atoms: _262  and  _265
REMARK  103  A    between atoms: _265  and  _266
REMARK  104  A    between atoms: _269  and  _271
REMARK  105  A    between atoms: _271  and  _272
REMARK  106  A    between atoms: _271  and  _274
REMARK  107  A    between atoms: _274  and  _275
REMARK  108  A    between atoms: _275  and  _492
REMARK  109  A    between atoms: _276  and  _278
REMARK  110  A    between atoms: _278  and  _279
REMARK  111  A    between atoms: _278  and  _281
REMARK  112  A    between atoms: _281  and  _282
REMARK  113  A    between atoms: _285  and  _287
REMARK  114  A    between atoms: _287  and  _288
REMARK  115  A    between atoms: _287  and  _290
REMARK  116  A    between atoms: _290  and  _291
REMARK  117  A    between atoms: _296  and  _297
REMARK  118  A    between atoms: _299  and  _301
REMARK  119  A    between atoms: _301  and  _302
REMARK  120  A    between atoms: _301  and  _304
REMARK  121  A    between atoms: _304  and  _305
REMARK  122  A    between atoms: _310  and  _311
REMARK  123  A    between atoms: _313  and  _315
REMARK  124  A    between atoms: _315  and  _316
REMARK  125  A    between atoms: _315  and  _318
REMARK  126  A    between atoms: _318  and  _319
REMARK  127  A    between atoms: _319  and  _320
REMARK  128  A    between atoms: _323  and  _325
REMARK  129  A    between atoms: _325  and  _326
REMARK  130  A    between atoms: _325  and  _328
REMARK  131  A    between atoms: _328  and  _329
REMARK  132  A    between atoms: _334  and  _335
REMARK  133  A    between atoms: _337  and  _339
REMARK  134  A    between atoms: _339  and  _340
REMARK  135  A    between atoms: _339  and  _342
REMARK  136  A    between atoms: _342  and  _343
REMARK  137  A    between atoms: _348  and  _350
REMARK  138  A    between atoms: _350  and  _351
REMARK  139  A    between atoms: _350  and  _353
REMARK  140  A    between atoms: _353  and  _354
REMARK  141  A    between atoms: _357  and  _359
REMARK  142  A    between atoms: _359  and  _360
REMARK  143  A    between atoms: _359  and  _362
REMARK  144  A    between atoms: _362  and  _363
REMARK  145  A    between atoms: _368  and  _370
REMARK  146  A    between atoms: _370  and  _371
REMARK  147  A    between atoms: _370  and  _373
REMARK  148  A    between atoms: _373  and  _374
REMARK  149  A    between atoms: _384  and  _386
REMARK  150  A    between atoms: _386  and  _387
REMARK  151  A    between atoms: _386  and  _389
REMARK  152  A    between atoms: _389  and  _390
REMARK  153  A    between atoms: _396  and  _398
REMARK  154  A    between atoms: _398  and  _399
REMARK  155  A    between atoms: _398  and  _401
REMARK  156  A    between atoms: _401  and  _402
REMARK  157  A    between atoms: _405  and  _407
REMARK  158  A    between atoms: _407  and  _408
REMARK  159  A    between atoms: _407  and  _410
REMARK  160  A    between atoms: _410  and  _411
REMARK  161  A    between atoms: _414  and  _416
REMARK  162  A    between atoms: _416  and  _417
REMARK  163  A    between atoms: _416  and  _419
REMARK  164  A    between atoms: _419  and  _420
REMARK  165  A    between atoms: _420  and  _421
REMARK  166  A    between atoms: _421  and  _422
REMARK  167  A    between atoms: _431  and  _433
REMARK  168  A    between atoms: _433  and  _434
REMARK  169  A    between atoms: _433  and  _436
REMARK  170  A    between atoms: _436  and  _437
REMARK  171  A    between atoms: _442  and  _444
REMARK  172  A    between atoms: _444  and  _445
REMARK  173  A    between atoms: _444  and  _447
REMARK  174  A    between atoms: _447  and  _448
REMARK  175  A    between atoms: _449  and  _450
REMARK  176  A    between atoms: _459  and  _461
REMARK  177  A    between atoms: _461  and  _462
REMARK  178  A    between atoms: _465  and  _467
REMARK  179  A    between atoms: _467  and  _468
REMARK  180  A    between atoms: _470  and  _472
REMARK  181  A    between atoms: _472  and  _473
REMARK  182  A    between atoms: _472  and  _475
REMARK  183  A    between atoms: _475  and  _476
REMARK  184  A    between atoms: _486  and  _488
REMARK  185  A    between atoms: _488  and  _489
REMARK  186  A    between atoms: _488  and  _491
REMARK  187  A    between atoms: _491  and  _492
REMARK  188  A    between atoms: _493  and  _495
REMARK  189  A    between atoms: _495  and  _496
REMARK  190  A    between atoms: _499  and  _501
REMARK  191  A    between atoms: _501  and  _502
REMARK  192  A    between atoms: _501  and  _504
REMARK  193  A    between atoms: _504  and  _505
REMARK  194  A    between atoms: _508  and  _510
REMARK  195  A    between atoms: _510  and  _511
REMARK  196  A    between atoms: _510  and  _513
REMARK  197  A    between atoms: _513  and  _514
REMARK  198  A    between atoms: _519  and  _520
REMARK  199  A    between atoms: _522  and  _524
REMARK  200  A    between atoms: _524  and  _525
REMARK  201  A    between atoms: _524  and  _527
REMARK  202  A    between atoms: _527  and  _528
REMARK  203  A    between atoms: _530  and  _532
REMARK  204  A    between atoms: _532  and  _533
REMARK  205  A    between atoms: _532  and  _535
REMARK  206  A    between atoms: _535  and  _536
REMARK  207  A    between atoms: _542  and  _544
REMARK  208  A    between atoms: _544  and  _545
REMARK  209  A    between atoms: _544  and  _547
REMARK  210  A    between atoms: _547  and  _548
REMARK  211  A    between atoms: _551  and  _553
REMARK  212  A    between atoms: _553  and  _554
REMARK  213  A    between atoms: _553  and  _556
REMARK  214  A    between atoms: _556  and  _557
REMARK  215  A    between atoms: _559  and  _561
REMARK  216  A    between atoms: _561  and  _562
REMARK  217  A    between atoms: _561  and  _564
REMARK  218  A    between atoms: _564  and  _565
REMARK  219  A    between atoms: _570  and  _572
REMARK  220  A    between atoms: _572  and  _573
REMARK  221  A    between atoms: _572  and  _575
REMARK  222  A    between atoms: _575  and  _576
REMARK  223  A    between atoms: _581  and  _583
REMARK  224  A    between atoms: _583  and  _584
REMARK  225  A    between atoms: _583  and  _586
REMARK  226  A    between atoms: _586  and  _587
REMARK  227  A    between atoms: _590  and  _592
REMARK  228  A    between atoms: _592  and  _593
REMARK  229  A    between atoms: _596  and  _598
REMARK  230  A    between atoms: _598  and  _599
REMARK  231  A    between atoms: _598  and  _601
REMARK  232  A    between atoms: _601  and  _602
REMARK  233  A    between atoms: _607  and  _608
REMARK  234  A    between atoms: _610  and  _612
REMARK  235  A    between atoms: _612  and  _613
REMARK  236  A    between atoms: _612  and  _615
REMARK  237  A    between atoms: _615  and  _616
REMARK  238  A    between atoms: _621  and  _622
REMARK  239  A    between atoms: _624  and  _626
REMARK  240  A    between atoms: _626  and  _627
REMARK  241  A    between atoms: _626  and  _629
REMARK  242  A    between atoms: _632  and  _634
REMARK  243  A    between atoms: _634  and  _635
REMARK  244  A    between atoms: _634  and  _637
REMARK  245  A    between atoms: _637  and  _638
REMARK  246  A    between atoms: _643  and  _645
REMARK  247  A    between atoms: _645  and  _646
REMARK  248  A    between atoms: _649  and  _651
REMARK  249  A    between atoms: _651  and  _652
REMARK  250  A    between atoms: _651  and  _654
REMARK  251  A    between atoms: _654  and  _655
REMARK  252  A    between atoms: _655  and  _656
REMARK  253  A    between atoms: _656  and  _657
REMARK  254  A    between atoms: _666  and  _668
REMARK  255  A    between atoms: _668  and  _669
REMARK  256  A    between atoms: _668  and  _671
REMARK  257  A    between atoms: _671  and  _672
REMARK  258  A    between atoms: _675  and  _677
REMARK  259  A    between atoms: _677  and  _678
REMARK  260  A    between atoms: _677  and  _680
REMARK  261  A    between atoms: _680  and  _681
REMARK  262  A    between atoms: _684  and  _686
REMARK  263  A    between atoms: _686  and  _687
REMARK  264  A    between atoms: _686  and  _689
REMARK  265  A    between atoms: _689  and  _690
REMARK                            x       y       z     vdW  Elec       q    Type
REMARK                         _______ _______ _______ _____ _____    ______ ____
ROOT
ATOM      1  O   HOH     1       1.726  15.039   8.576  0.00  0.00    +0.000 OA
ENDROOT
TORSDOF 0
REMARK  Name = ../refined-set-2016/1b2h/1b2h_pocket.pdb
REMARK  265 active torsions:
REMARK  status: ('A' for Active; 'I' for Inactive)
REMARK    1  A    between atoms: _1  and  _3
REMARK    2  A    between atoms: _3  and  _4
REMARK    3  A    between atoms: _3  and  _6
REMARK    4  A    between atoms: _6  and  _7
REMARK    5  A    between atoms: _12  and  _14
REMARK    6  A    between atoms: _14  and  _15
REMARK    7  A    between atoms: _17  and  _19
REMARK    8  A    between atoms: _19  and  _20
REMARK    9  A    between atoms: _19  and  _22
REMARK   10  A    between atoms: _22  and  _23
REMARK   11  A    between atoms: _25  and  _27
REMARK   12  A    between atoms: _27  and  _28
REMARK   13  A    between atoms: _27  and  _30
REMARK   14  A    between atoms: _30  and  _31
REMARK   15  A    between atoms: _31  and  _32
REMARK   16  A    between atoms: _37  and  _39
REMARK   17  A    between atoms: _39  and  _40
REMARK   18  A    between atoms: _39  and  _42
REMARK   19  A    between atoms: _42  and  _43
REMARK   20  A    between atoms: _46  and  _48
REMARK   21  A    between atoms: _48  and  _49
REMARK   22  A    between atoms: _48  and  _51
REMARK   23  A    between atoms: _52  and  _53
REMARK   24  A    between atoms: _56  and  _58
REMARK   25  A    between atoms: _58  and  _59
REMARK   26  A    between atoms: _61  and  _63
REMARK   27  A    between atoms: _63  and  _64
REMARK   28  A    between atoms: _63  and  _66
REMARK   29  A    between atoms: _70  and  _71
REMARK   30  A    between atoms: _76  and  _78
REMARK   31  A    between atoms: _78  and  _79
REMARK   32  A    between atoms: _78  and  _81
REMARK   33  A    between atoms: _81  and  _82
REMARK   34  A    between atoms: _82  and  _83
REMARK   35  A    between atoms: _86  and  _88
REMARK   36  A    between atoms: _88  and  _89
REMARK   37  A    between atoms: _88  and  _91
REMARK   38  A    between atoms: _91  and  _92
REMARK   39  A    between atoms: _94  and  _96
REMARK   40  A    between atoms: _96  and  _97
REMARK   41  A    between atoms: _96  and  _99
REMARK   42  A    between atoms: _99  and  _100
REMARK   43  A    between atoms: _105  and  _107
REMARK   44  A    between atoms: _107  and  _108
REMARK   45  A    between atoms: _107  and  _110
REMARK   46  A    between atoms: _110  and  _111
REMARK   47  A    between atoms: _111  and  _112
REMARK   48  A    between atoms: _112  and  _113
REMARK   49  A    between atoms: _123  and  _124
REMARK   50  A    between atoms: _129  and  _131
REMARK   51  A    between atoms: _131  and  _132
REMARK   52  A    between atoms: _131  and  _134
REMARK   53  A    between atoms: _134  and  _135
REMARK   54  A    between atoms: _140  and  _141
REMARK   55  A    between atoms: _143  and  _145
REMARK   56  A    between atoms: _145  and  _146
REMARK   57  A    between atoms: _145  and  _148
REMARK   58  A    between atoms: _148  and  _149
REMARK   59  A    between atoms: _154  and  _155
REMARK   60  A    between atoms: _157  and  _159
REMARK   61  A    between atoms: _159  and  _160
REMARK   62  A    between atoms: _159  and  _162
REMARK   63  A    between atoms: _165  and  _167
REMARK   64  A    between atoms: _167  and  _168
REMARK   65  A    between atoms: _167  and  _170
REMARK   66  A    between atoms: _170  and  _171
REMARK   67  A    between atoms: _177  and  _178
REMARK   68  A    between atoms: _183  and  _185
REMARK   69  A    between atoms: _185  and  _186
REMARK   70  A    between atoms: _185  and  _188
REMARK   71  A    between atoms: _188  and  _189
REMARK   72  A    between atoms: _191  and  _193
REMARK   73  A    between atoms: _193  and  _194
REMARK   74  A    between atoms: _193  and  _196
REMARK   75  A    between atoms: _196  and  _197
REMARK   76  A    between atoms: _197  and  _198
REMARK   77  A    between atoms: _201  and  _203
REMARK   78  A    between atoms: _203  and  _204
REMARK   79  A    between atoms: _203  and  _206
REMARK   80  A    between atoms: _206  and  _207
REMARK   81  A    between atoms: _212  and  _213
REMARK   82  A    between atoms: _215  and  _217
REMARK   83  A    between atoms: _217  and  _218
REMARK   84  A    between atoms: _217  and  _220
REMARK   85  A    between atoms: _220  and  _221
REMARK   86  A    between atoms: _226  and  _228
REMARK   87  A    between atoms: _228  and  _229
REMARK   88  A    between atoms: _228  and  _231
REMARK   89  A    between atoms: _231  and  _232
REMARK   90  A    between atoms: _237  and  _239
REMARK   91  A    between atoms: _239  and  _240
REMARK   92  A    between atoms: _239  and  _242
REMARK   93  A    between atoms: _242  and  _243
REMARK   94  A    between atoms: _243  and  _244
REMARK   95  A    between atoms: _246  and  _248
REMARK   96  A    between atoms: _248  and  _249
REMARK   97  A    between atoms: _248  and  _251
REMARK   98  A    between atoms: _251  and  _252
REMARK   99  A    between atoms: _257  and  _258
REMARK  100  A    between atoms: _260  and  _262
REMARK  101  A    between atoms: _262  and  _263
REMARK  102  A    between atoms: _262  and  _265
REMARK  103  A    between atoms: _265  and  _266
REMARK  104  A    between atoms: _269  and  _271
REMARK  105  A    between atoms: _271  and  _272
REMARK  106  A    between atoms: _271  and  _274
REMARK  107  A    between atoms: _274  and  _275
REMARK  108  A    between atoms: _275  and  _492
REMARK  109  A    between atoms: _276  and  _278
REMARK  110  A    between atoms: _278  and  _279
REMARK  111  A    between atoms: _278  and  _281
REMARK  112  A    between atoms: _281  and  _282
REMARK  113  A    between atoms: _285  and  _287
REMARK  114  A    between atoms: _287  and  _288
REMARK  115  A    between atoms: _287  and  _290
REMARK  116  A    between atoms: _290  and  _291
REMARK  117  A    between atoms: _296  and  _297
REMARK  118  A    between atoms: _299  and  _301
REMARK  119  A    between atoms: _301  and  _302
REMARK  120  A    between atoms: _301  and  _304
REMARK  121  A    between atoms: _304  and  _305
REMARK  122  A    between atoms: _310  and  _311
REMARK  123  A    between atoms: _313  and  _315
REMARK  124  A    between atoms: _315  and  _316
REMARK  125  A    between atoms: _315  and  _318
REMARK  126  A    between atoms: _318  and  _319
REMARK  127  A    between atoms: _319  and  _320
REMARK  128  A    between atoms: _323  and  _325
REMARK  129  A    between atoms: _325  and  _326
REMARK  130  A    between atoms: _325  and  _328
REMARK  131  A    between atoms: _328  and  _329
REMARK  132  A    between atoms: _334  and  _335
REMARK  133  A    between atoms: _337  and  _339
REMARK  134  A    between atoms: _339  and  _340
REMARK  135  A    between atoms: _339  and  _342
REMARK  136  A    between atoms: _342  and  _343
REMARK  137  A    between atoms: _348  and  _350
REMARK  138  A    between atoms: _350  and  _351
REMARK  139  A    between atoms: _350  and  _353
REMARK  140  A    between atoms: _353  and  _354
REMARK  141  A    between atoms: _357  and  _359
REMARK  142  A    between atoms: _359  and  _360
REMARK  143  A    between atoms: _359  and  _362
REMARK  144  A    between atoms: _362  and  _363
REMARK  145  A    between atoms: _368  and  _370
REMARK  146  A    between atoms: _370  and  _371
REMARK  147  A    between atoms: _370  and  _373
REMARK  148  A    between atoms: _373  and  _374
REMARK  149  A    between atoms: _384  and  _386
REMARK  150  A    between atoms: _386  and  _387
REMARK  151  A    between atoms: _386  and  _389
REMARK  152  A    between atoms: _389  and  _390
REMARK  153  A    between atoms: _396  and  _398
REMARK  154  A    between atoms: _398  and  _399
REMARK  155  A    between atoms: _398  and  _401
REMARK  156  A    between atoms: _401  and  _402
REMARK  157  A    between atoms: _405  and  _407
REMARK  158  A    between atoms: _407  and  _408
REMARK  159  A    between atoms: _407  and  _410
REMARK  160  A    between atoms: _410  and  _411
REMARK  161  A    between atoms: _414  and  _416
REMARK  162  A    between atoms: _416  and  _417
REMARK  163  A    between atoms: _416  and  _419
REMARK  164  A    between atoms: _419  and  _420
REMARK  165  A    between atoms: _420  and  _421
REMARK  166  A    between atoms: _421  and  _422
REMARK  167  A    between atoms: _431  and  _433
REMARK  168  A    between atoms: _433  and  _434
REMARK  169  A    between atoms: _433  and  _436
REMARK  170  A    between atoms: _436  and  _437
REMARK  171  A    between atoms: _442  and  _444
REMARK  172  A    between atoms: _444  and  _445
REMARK  173  A    between atoms: _444  and  _447
REMARK  174  A    between atoms: _447  and  _448
REMARK  175  A    between atoms: _449  and  _450
REMARK  176  A    between atoms: _459  and  _461
REMARK  177  A    between atoms: _461  and  _462
REMARK  178  A    between atoms: _465  and  _467
REMARK  179  A    between atoms: _467  and  _468
REMARK  180  A    between atoms: _470  and  _472
REMARK  181  A    between atoms: _472  and  _473
REMARK  182  A    between atoms: _472  and  _475
REMARK  183  A    between atoms: _475  and  _476
REMARK  184  A    between atoms: _486  and  _488
REMARK  185  A    between atoms: _488  and  _489
REMARK  186  A    between atoms: _488  and  _491
REMARK  187  A    between atoms: _491  and  _492
REMARK  188  A    between atoms: _493  and  _495
REMARK  189  A    between atoms: _495  and  _496
REMARK  190  A    between atoms: _499  and  _501
REMARK  191  A    between atoms: _501  and  _502
REMARK  192  A    between atoms: _501  and  _504
REMARK  193  A    between atoms: _504  and  _505
REMARK  194  A    between atoms: _508  and  _510
REMARK  195  A    between atoms: _510  and  _511
REMARK  196  A    between atoms: _510  and  _513
REMARK  197  A    between atoms: _513  and  _514
REMARK  198  A    between atoms: _519  and  _520
REMARK  199  A    between atoms: _522  and  _524
REMARK  200  A    between atoms: _524  and  _525
REMARK  201  A    between atoms: _524  and  _527
REMARK  202  A    between atoms: _527  and  _528
REMARK  203  A    between atoms: _530  and  _532
REMARK  204  A    between atoms: _532  and  _533
REMARK  205  A    between atoms: _532  and  _535
REMARK  206  A    between atoms: _535  and  _536
REMARK  207  A    between atoms: _542  and  _544
REMARK  208  A    between atoms: _544  and  _545
REMARK  209  A    between atoms: _544  and  _547
REMARK  210  A    between atoms: _547  and  _548
REMARK  211  A    between atoms: _551  and  _553
REMARK  212  A    between atoms: _553  and  _554
REMARK  213  A    between atoms: _553  and  _556
REMARK  214  A    between atoms: _556  and  _557
REMARK  215  A    between atoms: _559  and  _561
REMARK  216  A    between atoms: _561  and  _562
REMARK  217  A    between atoms: _561  and  _564
REMARK  218  A    between atoms: _564  and  _565
REMARK  219  A    between atoms: _570  and  _572
REMARK  220  A    between atoms: _572  and  _573
REMARK  221  A    between atoms: _572  and  _575
REMARK  222  A    between atoms: _575  and  _576
REMARK  223  A    between atoms: _581  and  _583
REMARK  224  A    between atoms: _583  and  _584
REMARK  225  A    between atoms: _583  and  _586
REMARK  226  A    between atoms: _586  and  _587
REMARK  227  A    between atoms: _590  and  _592
REMARK  228  A    between atoms: _592  and  _593
REMARK  229  A    between atoms: _596  and  _598
REMARK  230  A    between atoms: _598  and  _599
REMARK  231  A    between atoms: _598  and  _601
REMARK  232  A    between atoms: _601  and  _602
REMARK  233  A    between atoms: _607  and  _608
REMARK  234  A    between atoms: _610  and  _612
REMARK  235  A    between atoms: _612  and  _613
REMARK  236  A    between atoms: _612  and  _615
REMARK  237  A    between atoms: _615  and  _616
REMARK  238  A    between atoms: _621  and  _622
REMARK  239  A    between atoms: _624  and  _626
REMARK  240  A    between atoms: _626  and  _627
REMARK  241  A    between atoms: _626  and  _629
REMARK  242  A    between atoms: _632  and  _634
REMARK  243  A    between atoms: _634  and  _635
REMARK  244  A    between atoms: _634  and  _637
REMARK  245  A    between atoms: _637  and  _638
REMARK  246  A    between atoms: _643  and  _645
REMARK  247  A    between atoms: _645  and  _646
REMARK  248  A    between atoms: _649  and  _651
REMARK  249  A    between atoms: _651  and  _652
REMARK  250  A    between atoms: _651  and  _654
REMARK  251  A    between atoms: _654  and  _655
REMARK  252  A    between atoms: _655  and  _656
REMARK  253  A    between atoms: _656  and  _657
REMARK  254  A    between atoms: _666  and  _668
REMARK  255  A    between atoms: _668  and  _669
REMARK  256  A    between atoms: _668  and  _671
REMARK  257  A    between atoms: _671  and  _672
REMARK  258  A    between atoms: _675  and  _677
REMARK  259  A    between atoms: _677  and  _678
REMARK  260  A    between atoms: _677  and  _680
REMARK  261  A    between atoms: _680  and  _681
REMARK  262  A    between atoms: _684  and  _686
REMARK  263  A    between atoms: _686  and  _687
REMARK  264  A    between atoms: _686  and  _689
REMARK  265  A    between atoms: _689  and  _690
REMARK                            x       y       z     vdW  Elec       q    Type
REMARK                         _______ _______ _______ _____ _____    ______ ____
ROOT
ATOM      1  O   HOH     1       5.623  20.408  24.959  0.00  0.00    +0.000 OA
ENDROOT
TORSDOF 0
REMARK  Name = ../refined-set-2016/1b2h/1b2h_pocket.pdb
REMARK  265 active torsions:
REMARK  status: ('A' for Active; 'I' for Inactive)
REMARK    1  A    between atoms: _1  and  _3
REMARK    2  A    between atoms: _3  and  _4
REMARK    3  A    between atoms: _3  and  _6
REMARK    4  A    between atoms: _6  and  _7
REMARK    5  A    between atoms: _12  and  _14
REMARK    6  A    between atoms: _14  and  _15
REMARK    7  A    between atoms: _17  and  _19
REMARK    8  A    between atoms: _19  and  _20
REMARK    9  A    between atoms: _19  and  _22
REMARK   10  A    between atoms: _22  and  _23
REMARK   11  A    between atoms: _25  and  _27
REMARK   12  A    between atoms: _27  and  _28
REMARK   13  A    between atoms: _27  and  _30
REMARK   14  A    between atoms: _30  and  _31
REMARK   15  A    between atoms: _31  and  _32
REMARK   16  A    between atoms: _37  and  _39
REMARK   17  A    between atoms: _39  and  _40
REMARK   18  A    between atoms: _39  and  _42
REMARK   19  A    between atoms: _42  and  _43
REMARK   20  A    between atoms: _46  and  _48
REMARK   21  A    between atoms: _48  and  _49
REMARK   22  A    between atoms: _48  and  _51
REMARK   23  A    between atoms: _52  and  _53
REMARK   24  A    between atoms: _56  and  _58
REMARK   25  A    between atoms: _58  and  _59
REMARK   26  A    between atoms: _61  and  _63
REMARK   27  A    between atoms: _63  and  _64
REMARK   28  A    between atoms: _63  and  _66
REMARK   29  A    between atoms: _70  and  _71
REMARK   30  A    between atoms: _76  and  _78
REMARK   31  A    between atoms: _78  and  _79
REMARK   32  A    between atoms: _78  and  _81
REMARK   33  A    between atoms: _81  and  _82
REMARK   34  A    between atoms: _82  and  _83
REMARK   35  A    between atoms: _86  and  _88
REMARK   36  A    between atoms: _88  and  _89
REMARK   37  A    between atoms: _88  and  _91
REMARK   38  A    between atoms: _91  and  _92
REMARK   39  A    between atoms: _94  and  _96
REMARK   40  A    between atoms: _96  and  _97
REMARK   41  A    between atoms: _96  and  _99
REMARK   42  A    between atoms: _99  and  _100
REMARK   43  A    between atoms: _105  and  _107
REMARK   44  A    between atoms: _107  and  _108
REMARK   45  A    between atoms: _107  and  _110
REMARK   46  A    between atoms: _110  and  _111
REMARK   47  A    between atoms: _111  and  _112
REMARK   48  A    between atoms: _112  and  _113
REMARK   49  A    between atoms: _123  and  _124
REMARK   50  A    between atoms: _129  and  _131
REMARK   51  A    between atoms: _131  and  _132
REMARK   52  A    between atoms: _131  and  _134
REMARK   53  A    between atoms: _134  and  _135
REMARK   54  A    between atoms: _140  and  _141
REMARK   55  A    between atoms: _143  and  _145
REMARK   56  A    between atoms: _145  and  _146
REMARK   57  A    between atoms: _145  and  _148
REMARK   58  A    between atoms: _148  and  _149
REMARK   59  A    between atoms: _154  and  _155
REMARK   60  A    between atoms: _157  and  _159
REMARK   61  A    between atoms: _159  and  _160
REMARK   62  A    between atoms: _159  and  _162
REMARK   63  A    between atoms: _165  and  _167
REMARK   64  A    between atoms: _167  and  _168
REMARK   65  A    between atoms: _167  and  _170
REMARK   66  A    between atoms: _170  and  _171
REMARK   67  A    between atoms: _177  and  _178
REMARK   68  A    between atoms: _183  and  _185
REMARK   69  A    between atoms: _185  and  _186
REMARK   70  A    between atoms: _185  and  _188
REMARK   71  A    between atoms: _188  and  _189
REMARK   72  A    between atoms: _191  and  _193
REMARK   73  A    between atoms: _193  and  _194
REMARK   74  A    between atoms: _193  and  _196
REMARK   75  A    between atoms: _196  and  _197
REMARK   76  A    between atoms: _197  and  _198
REMARK   77  A    between atoms: _201  and  _203
REMARK   78  A    between atoms: _203  and  _204
REMARK   79  A    between atoms: _203  and  _206
REMARK   80  A    between atoms: _206  and  _207
REMARK   81  A    between atoms: _212  and  _213
REMARK   82  A    between atoms: _215  and  _217
REMARK   83  A    between atoms: _217  and  _218
REMARK   84  A    between atoms: _217  and  _220
REMARK   85  A    between atoms: _220  and  _221
REMARK   86  A    between atoms: _226  and  _228
REMARK   87  A    between atoms: _228  and  _229
REMARK   88  A    between atoms: _228  and  _231
REMARK   89  A    between atoms: _231  and  _232
REMARK   90  A    between atoms: _237  and  _239
REMARK   91  A    between atoms: _239  and  _240
REMARK   92  A    between atoms: _239  and  _242
REMARK   93  A    between atoms: _242  and  _243
REMARK   94  A    between atoms: _243  and  _244
REMARK   95  A    between atoms: _246  and  _248
REMARK   96  A    between atoms: _248  and  _249
REMARK   97  A    between atoms: _248  and  _251
REMARK   98  A    between atoms: _251  and  _252
REMARK   99  A    between atoms: _257  and  _258
REMARK  100  A    between atoms: _260  and  _262
REMARK  101  A    between atoms: _262  and  _263
REMARK  102  A    between atoms: _262  and  _265
REMARK  103  A    between atoms: _265  and  _266
REMARK  104  A    between atoms: _269  and  _271
REMARK  105  A    between atoms: _271  and  _272
REMARK  106  A    between atoms: _271  and  _274
REMARK  107  A    between atoms: _274  and  _275
REMARK  108  A    between atoms: _275  and  _492
REMARK  109  A    between atoms: _276  and  _278
REMARK  110  A    between atoms: _278  and  _279
REMARK  111  A    between atoms: _278  and  _281
REMARK  112  A    between atoms: _281  and  _282
REMARK  113  A    between atoms: _285  and  _287
REMARK  114  A    between atoms: _287  and  _288
REMARK  115  A    between atoms: _287  and  _290
REMARK  116  A    between atoms: _290  and  _291
REMARK  117  A    between atoms: _296  and  _297
REMARK  118  A    between atoms: _299  and  _301
REMARK  119  A    between atoms: _301  and  _302
REMARK  120  A    between atoms: _301  and  _304
REMARK  121  A    between atoms: _304  and  _305
REMARK  122  A    between atoms: _310  and  _311
REMARK  123  A    between atoms: _313  and  _315
REMARK  124  A    between atoms: _315  and  _316
REMARK  125  A    between atoms: _315  and  _318
REMARK  126  A    between atoms: _318  and  _319
REMARK  127  A    between atoms: _319  and  _320
REMARK  128  A    between atoms: _323  and  _325
REMARK  129  A    between atoms: _325  and  _326
REMARK  130  A    between atoms: _325  and  _328
REMARK  131  A    between atoms: _328  and  _329
REMARK  132  A    between atoms: _334  and  _335
REMARK  133  A    between atoms: _337  and  _339
REMARK  134  A    between atoms: _339  and  _340
REMARK  135  A    between atoms: _339  and  _342
REMARK  136  A    between atoms: _342  and  _343
REMARK  137  A    between atoms: _348  and  _350
REMARK  138  A    between atoms: _350  and  _351
REMARK  139  A    between atoms: _350  and  _353
REMARK  140  A    between atoms: _353  and  _354
REMARK  141  A    between atoms: _357  and  _359
REMARK  142  A    between atoms: _359  and  _360
REMARK  143  A    between atoms: _359  and  _362
REMARK  144  A    between atoms: _362  and  _363
REMARK  145  A    between atoms: _368  and  _370
REMARK  146  A    between atoms: _370  and  _371
REMARK  147  A    between atoms: _370  and  _373
REMARK  148  A    between atoms: _373  and  _374
REMARK  149  A    between atoms: _384  and  _386
REMARK  150  A    between atoms: _386  and  _387
REMARK  151  A    between atoms: _386  and  _389
REMARK  152  A    between atoms: _389  and  _390
REMARK  153  A    between atoms: _396  and  _398
REMARK  154  A    between atoms: _398  and  _399
REMARK  155  A    between atoms: _398  and  _401
REMARK  156  A    between atoms: _401  and  _402
REMARK  157  A    between atoms: _405  and  _407
REMARK  158  A    between atoms: _407  and  _408
REMARK  159  A    between atoms: _407  and  _410
REMARK  160  A    between atoms: _410  and  _411
REMARK  161  A    between atoms: _414  and  _416
REMARK  162  A    between atoms: _416  and  _417
REMARK  163  A    between atoms: _416  and  _419
REMARK  164  A    between atoms: _419  and  _420
REMARK  165  A    between atoms: _420  and  _421
REMARK  166  A    between atoms: _421  and  _422
REMARK  167  A    between atoms: _431  and  _433
REMARK  168  A    between atoms: _433  and  _434
REMARK  169  A    between atoms: _433  and  _436
REMARK  170  A    between atoms: _436  and  _437
REMARK  171  A    between atoms: _442  and  _444
REMARK  172  A    between atoms: _444  and  _445
REMARK  173  A    between atoms: _444  and  _447
REMARK  174  A    between atoms: _447  and  _448
REMARK  175  A    between atoms: _449  and  _450
REMARK  176  A    between atoms: _459  and  _461
REMARK  177  A    between atoms: _461  and  _462
REMARK  178  A    between atoms: _465  and  _467
REMARK  179  A    between atoms: _467  and  _468
REMARK  180  A    between atoms: _470  and  _472
REMARK  181  A    between atoms: _472  and  _473
REMARK  182  A    between atoms: _472  and  _475
REMARK  183  A    between atoms: _475  and  _476
REMARK  184  A    between atoms: _486  and  _488
REMARK  185  A    between atoms: _488  and  _489
REMARK  186  A    between atoms: _488  and  _491
REMARK  187  A    between atoms: _491  and  _492
REMARK  188  A    between atoms: _493  and  _495
REMARK  189  A    between atoms: _495  and  _496
REMARK  190  A    between atoms: _499  and  _501
REMARK  191  A    between atoms: _501  and  _502
REMARK  192  A    between atoms: _501  and  _504
REMARK  193  A    between atoms: _504  and  _505
REMARK  194  A    between atoms: _508  and  _510
REMARK  195  A    between atoms: _510  and  _511
REMARK  196  A    between atoms: _510  and  _513
REMARK  197  A    between atoms: _513  and  _514
REMARK  198  A    between atoms: _519  and  _520
REMARK  199  A    between atoms: _522  and  _524
REMARK  200  A    between atoms: _524  and  _525
REMARK  201  A    between atoms: _524  and  _527
REMARK  202  A    between atoms: _527  and  _528
REMARK  203  A    between atoms: _530  and  _532
REMARK  204  A    between atoms: _532  and  _533
REMARK  205  A    between atoms: _532  and  _535
REMARK  206  A    between atoms: _535  and  _536
REMARK  207  A    between atoms: _542  and  _544
REMARK  208  A    between atoms: _544  and  _545
REMARK  209  A    between atoms: _544  and  _547
REMARK  210  A    between atoms: _547  and  _548
REMARK  211  A    between atoms: _551  and  _553
REMARK  212  A    between atoms: _553  and  _554
REMARK  213  A    between atoms: _553  and  _556
REMARK  214  A    between atoms: _556  and  _557
REMARK  215  A    between atoms: _559  and  _561
REMARK  216  A    between atoms: _561  and  _562
REMARK  217  A    between atoms: _561  and  _564
REMARK  218  A    between atoms: _564  and  _565
REMARK  219  A    between atoms: _570  and  _572
REMARK  220  A    between atoms: _572  and  _573
REMARK  221  A    between atoms: _572  and  _575
REMARK  222  A    between atoms: _575  and  _576
REMARK  223  A    between atoms: _581  and  _583
REMARK  224  A    between atoms: _583  and  _584
REMARK  225  A    between atoms: _583  and  _586
REMARK  226  A    between atoms: _586  and  _587
REMARK  227  A    between atoms: _590  and  _592
REMARK  228  A    between atoms: _592  and  _593
REMARK  229  A    between atoms: _596  and  _598
REMARK  230  A    between atoms: _598  and  _599
REMARK  231  A    between atoms: _598  and  _601
REMARK  232  A    between atoms: _601  and  _602
REMARK  233  A    between atoms: _607  and  _608
REMARK  234  A    between atoms: _610  and  _612
REMARK  235  A    between atoms: _612  and  _613
REMARK  236  A    between atoms: _612  and  _615
REMARK  237  A    between atoms: _615  and  _616
REMARK  238  A    between atoms: _621  and  _622
REMARK  239  A    between atoms: _624  and  _626
REMARK  240  A    between atoms: _626  and  _627
REMARK  241  A    between atoms: _626  and  _629
REMARK  242  A    between atoms: _632  and  _634
REMARK  243  A    between atoms: _634  and  _635
REMARK  244  A    between atoms: _634  and  _637
REMARK  245  A    between atoms: _637  and  _638
REMARK  246  A    between atoms: _643  and  _645
REMARK  247  A    between atoms: _645  and  _646
REMARK  248  A    between atoms: _649  and  _651
REMARK  249  A    between atoms: _651  and  _652
REMARK  250  A    between atoms: _651  and  _654
REMARK  251  A    between atoms: _654  and  _655
REMARK  252  A    between atoms: _655  and  _656
REMARK  253  A    between atoms: _656  and  _657
REMARK  254  A    between atoms: _666  and  _668
REMARK  255  A    between atoms: _668  and  _669
REMARK  256  A    between atoms: _668  and  _671
REMARK  257  A    between atoms: _671  and  _672
REMARK  258  A    between atoms: _675  and  _677
REMARK  259  A    between atoms: _677  and  _678
REMARK  260  A    between atoms: _677  and  _680
REMARK  261  A    between atoms: _680  and  _681
REMARK  262  A    between atoms: _684  and  _686
REMARK  263  A    between atoms: _686  and  _687
REMARK  264  A    between atoms: _686  and  _689
REMARK  265  A    between atoms: _689  and  _690
REMARK                            x       y       z     vdW  Elec       q    Type
REMARK                         _______ _______ _______ _____ _____    ______ ____
ROOT
ATOM      1  O   HOH     1       8.783  13.404   7.201  0.00  0.00    +0.000 OA
ENDROOT
TORSDOF 0
REMARK  Name = ../refined-set-2016/1b2h/1b2h_pocket.pdb
REMARK  265 active torsions:
REMARK  status: ('A' for Active; 'I' for Inactive)
REMARK    1  A    between atoms: _1  and  _3
REMARK    2  A    between atoms: _3  and  _4
REMARK    3  A    between atoms: _3  and  _6
REMARK    4  A    between atoms: _6  and  _7
REMARK    5  A    between atoms: _12  and  _14
REMARK    6  A    between atoms: _14  and  _15
REMARK    7  A    between atoms: _17  and  _19
REMARK    8  A    between atoms: _19  and  _20
REMARK    9  A    between atoms: _19  and  _22
REMARK   10  A    between atoms: _22  and  _23
REMARK   11  A    between atoms: _25  and  _27
REMARK   12  A    between atoms: _27  and  _28
REMARK   13  A    between atoms: _27  and  _30
REMARK   14  A    between atoms: _30  and  _31
REMARK   15  A    between atoms: _31  and  _32
REMARK   16  A    between atoms: _37  and  _39
REMARK   17  A    between atoms: _39  and  _40
REMARK   18  A    between atoms: _39  and  _42
REMARK   19  A    between atoms: _42  and  _43
REMARK   20  A    between atoms: _46  and  _48
REMARK   21  A    between atoms: _48  and  _49
REMARK   22  A    between atoms: _48  and  _51
REMARK   23  A    between atoms: _52  and  _53
REMARK   24  A    between atoms: _56  and  _58
REMARK   25  A    between atoms: _58  and  _59
REMARK   26  A    between atoms: _61  and  _63
REMARK   27  A    between atoms: _63  and  _64
REMARK   28  A    between atoms: _63  and  _66
REMARK   29  A    between atoms: _70  and  _71
REMARK   30  A    between atoms: _76  and  _78
REMARK   31  A    between atoms: _78  and  _79
REMARK   32  A    between atoms: _78  and  _81
REMARK   33  A    between atoms: _81  and  _82
REMARK   34  A    between atoms: _82  and  _83
REMARK   35  A    between atoms: _86  and  _88
REMARK   36  A    between atoms: _88  and  _89
REMARK   37  A    between atoms: _88  and  _91
REMARK   38  A    between atoms: _91  and  _92
REMARK   39  A    between atoms: _94  and  _96
REMARK   40  A    between atoms: _96  and  _97
REMARK   41  A    between atoms: _96  and  _99
REMARK   42  A    between atoms: _99  and  _100
REMARK   43  A    between atoms: _105  and  _107
REMARK   44  A    between atoms: _107  and  _108
REMARK   45  A    between atoms: _107  and  _110
REMARK   46  A    between atoms: _110  and  _111
REMARK   47  A    between atoms: _111  and  _112
REMARK   48  A    between atoms: _112  and  _113
REMARK   49  A    between atoms: _123  and  _124
REMARK   50  A    between atoms: _129  and  _131
REMARK   51  A    between atoms: _131  and  _132
REMARK   52  A    between atoms: _131  and  _134
REMARK   53  A    between atoms: _134  and  _135
REMARK   54  A    between atoms: _140  and  _141
REMARK   55  A    between atoms: _143  and  _145
REMARK   56  A    between atoms: _145  and  _146
REMARK   57  A    between atoms: _145  and  _148
REMARK   58  A    between atoms: _148  and  _149
REMARK   59  A    between atoms: _154  and  _155
REMARK   60  A    between atoms: _157  and  _159
REMARK   61  A    between atoms: _159  and  _160
REMARK   62  A    between atoms: _159  and  _162
REMARK   63  A    between atoms: _165  and  _167
REMARK   64  A    between atoms: _167  and  _168
REMARK   65  A    between atoms: _167  and  _170
REMARK   66  A    between atoms: _170  and  _171
REMARK   67  A    between atoms: _177  and  _178
REMARK   68  A    between atoms: _183  and  _185
REMARK   69  A    between atoms: _185  and  _186
REMARK   70  A    between atoms: _185  and  _188
REMARK   71  A    between atoms: _188  and  _189
REMARK   72  A    between atoms: _191  and  _193
REMARK   73  A    between atoms: _193  and  _194
REMARK   74  A    between atoms: _193  and  _196
REMARK   75  A    between atoms: _196  and  _197
REMARK   76  A    between atoms: _197  and  _198
REMARK   77  A    between atoms: _201  and  _203
REMARK   78  A    between atoms: _203  and  _204
REMARK   79  A    between atoms: _203  and  _206
REMARK   80  A    between atoms: _206  and  _207
REMARK   81  A    between atoms: _212  and  _213
REMARK   82  A    between atoms: _215  and  _217
REMARK   83  A    between atoms: _217  and  _218
REMARK   84  A    between atoms: _217  and  _220
REMARK   85  A    between atoms: _220  and  _221
REMARK   86  A    between atoms: _226  and  _228
REMARK   87  A    between atoms: _228  and  _229
REMARK   88  A    between atoms: _228  and  _231
REMARK   89  A    between atoms: _231  and  _232
REMARK   90  A    between atoms: _237  and  _239
REMARK   91  A    between atoms: _239  and  _240
REMARK   92  A    between atoms: _239  and  _242
REMARK   93  A    between atoms: _242  and  _243
REMARK   94  A    between atoms: _243  and  _244
REMARK   95  A    between atoms: _246  and  _248
REMARK   96  A    between atoms: _248  and  _249
REMARK   97  A    between atoms: _248  and  _251
REMARK   98  A    between atoms: _251  and  _252
REMARK   99  A    between atoms: _257  and  _258
REMARK  100  A    between atoms: _260  and  _262
REMARK  101  A    between atoms: _262  and  _263
REMARK  102  A    between atoms: _262  and  _265
REMARK  103  A    between atoms: _265  and  _266
REMARK  104  A    between atoms: _269  and  _271
REMARK  105  A    between atoms: _271  and  _272
REMARK  106  A    between atoms: _271  and  _274
REMARK  107  A    between atoms: _274  and  _275
REMARK  108  A    between atoms: _275  and  _492
REMARK  109  A    between atoms: _276  and  _278
REMARK  110  A    between atoms: _278  and  _279
REMARK  111  A    between atoms: _278  and  _281
REMARK  112  A    between atoms: _281  and  _282
REMARK  113  A    between atoms: _285  and  _287
REMARK  114  A    between atoms: _287  and  _288
REMARK  115  A    between atoms: _287  and  _290
REMARK  116  A    between atoms: _290  and  _291
REMARK  117  A    between atoms: _296  and  _297
REMARK  118  A    between atoms: _299  and  _301
REMARK  119  A    between atoms: _301  and  _302
REMARK  120  A    between atoms: _301  and  _304
REMARK  121  A    between atoms: _304  and  _305
REMARK  122  A    between atoms: _310  and  _311
REMARK  123  A    between atoms: _313  and  _315
REMARK  124  A    between atoms: _315  and  _316
REMARK  125  A    between atoms: _315  and  _318
REMARK  126  A    between atoms: _318  and  _319
REMARK  127  A    between atoms: _319  and  _320
REMARK  128  A    between atoms: _323  and  _325
REMARK  129  A    between atoms: _325  and  _326
REMARK  130  A    between atoms: _325  and  _328
REMARK  131  A    between atoms: _328  and  _329
REMARK  132  A    between atoms: _334  and  _335
REMARK  133  A    between atoms: _337  and  _339
REMARK  134  A    between atoms: _339  and  _340
REMARK  135  A    between atoms: _339  and  _342
REMARK  136  A    between atoms: _342  and  _343
REMARK  137  A    between atoms: _348  and  _350
REMARK  138  A    between atoms: _350  and  _351
REMARK  139  A    between atoms: _350  and  _353
REMARK  140  A    between atoms: _353  and  _354
REMARK  141  A    between atoms: _357  and  _359
REMARK  142  A    between atoms: _359  and  _360
REMARK  143  A    between atoms: _359  and  _362
REMARK  144  A    between atoms: _362  and  _363
REMARK  145  A    between atoms: _368  and  _370
REMARK  146  A    between atoms: _370  and  _371
REMARK  147  A    between atoms: _370  and  _373
REMARK  148  A    between atoms: _373  and  _374
REMARK  149  A    between atoms: _384  and  _386
REMARK  150  A    between atoms: _386  and  _387
REMARK  151  A    between atoms: _386  and  _389
REMARK  152  A    between atoms: _389  and  _390
REMARK  153  A    between atoms: _396  and  _398
REMARK  154  A    between atoms: _398  and  _399
REMARK  155  A    between atoms: _398  and  _401
REMARK  156  A    between atoms: _401  and  _402
REMARK  157  A    between atoms: _405  and  _407
REMARK  158  A    between atoms: _407  and  _408
REMARK  159  A    between atoms: _407  and  _410
REMARK  160  A    between atoms: _410  and  _411
REMARK  161  A    between atoms: _414  and  _416
REMARK  162  A    between atoms: _416  and  _417
REMARK  163  A    between atoms: _416  and  _419
REMARK  164  A    between atoms: _419  and  _420
REMARK  165  A    between atoms: _420  and  _421
REMARK  166  A    between atoms: _421  and  _422
REMARK  167  A    between atoms: _431  and  _433
REMARK  168  A    between atoms: _433  and  _434
REMARK  169  A    between atoms: _433  and  _436
REMARK  170  A    between atoms: _436  and  _437
REMARK  171  A    between atoms: _442  and  _444
REMARK  172  A    between atoms: _444  and  _445
REMARK  173  A    between atoms: _444  and  _447
REMARK  174  A    between atoms: _447  and  _448
REMARK  175  A    between atoms: _449  and  _450
REMARK  176  A    between atoms: _459  and  _461
REMARK  177  A    between atoms: _461  and  _462
REMARK  178  A    between atoms: _465  and  _467
REMARK  179  A    between atoms: _467  and  _468
REMARK  180  A    between atoms: _470  and  _472
REMARK  181  A    between atoms: _472  and  _473
REMARK  182  A    between atoms: _472  and  _475
REMARK  183  A    between atoms: _475  and  _476
REMARK  184  A    between atoms: _486  and  _488
REMARK  185  A    between atoms: _488  and  _489
REMARK  186  A    between atoms: _488  and  _491
REMARK  187  A    between atoms: _491  and  _492
REMARK  188  A    between atoms: _493  and  _495
REMARK  189  A    between atoms: _495  and  _496
REMARK  190  A    between atoms: _499  and  _501
REMARK  191  A    between atoms: _501  and  _502
REMARK  192  A    between atoms: _501  and  _504
REMARK  193  A    between atoms: _504  and  _505
REMARK  194  A    between atoms: _508  and  _510
REMARK  195  A    between atoms: _510  and  _511
REMARK  196  A    between atoms: _510  and  _513
REMARK  197  A    between atoms: _513  and  _514
REMARK  198  A    between atoms: _519  and  _520
REMARK  199  A    between atoms: _522  and  _524
REMARK  200  A    between atoms: _524  and  _525
REMARK  201  A    between atoms: _524  and  _527
REMARK  202  A    between atoms: _527  and  _528
REMARK  203  A    between atoms: _530  and  _532
REMARK  204  A    between atoms: _532  and  _533
REMARK  205  A    between atoms: _532  and  _535
REMARK  206  A    between atoms: _535  and  _536
REMARK  207  A    between atoms: _542  and  _544
REMARK  208  A    between atoms: _544  and  _545
REMARK  209  A    between atoms: _544  and  _547
REMARK  210  A    between atoms: _547  and  _548
REMARK  211  A    between atoms: _551  and  _553
REMARK  212  A    between atoms: _553  and  _554
REMARK  213  A    between atoms: _553  and  _556
REMARK  214  A    between atoms: _556  and  _557
REMARK  215  A    between atoms: _559  and  _561
REMARK  216  A    between atoms: _561  and  _562
REMARK  217  A    between atoms: _561  and  _564
REMARK  218  A    between atoms: _564  and  _565
REMARK  219  A    between atoms: _570  and  _572
REMARK  220  A    between atoms: _572  and  _573
REMARK  221  A    between atoms: _572  and  _575
REMARK  222  A    between atoms: _575  and  _576
REMARK  223  A    between atoms: _581  and  _583
REMARK  224  A    between atoms: _583  and  _584
REMARK  225  A    between atoms: _583  and  _586
REMARK  226  A    between atoms: _586  and  _587
REMARK  227  A    between atoms: _590  and  _592
REMARK  228  A    between atoms: _592  and  _593
REMARK  229  A    between atoms: _596  and  _598
REMARK  230  A    between atoms: _598  and  _599
REMARK  231  A    between atoms: _598  and  _601
REMARK  232  A    between atoms: _601  and  _602
REMARK  233  A    between atoms: _607  and  _608
REMARK  234  A    between atoms: _610  and  _612
REMARK  235  A    between atoms: _612  and  _613
REMARK  236  A    between atoms: _612  and  _615
REMARK  237  A    between atoms: _615  and  _616
REMARK  238  A    between atoms: _621  and  _622
REMARK  239  A    between atoms: _624  and  _626
REMARK  240  A    between atoms: _626  and  _627
REMARK  241  A    between atoms: _626  and  _629
REMARK  242  A    between atoms: _632  and  _634
REMARK  243  A    between atoms: _634  and  _635
REMARK  244  A    between atoms: _634  and  _637
REMARK  245  A    between atoms: _637  and  _638
REMARK  246  A    between atoms: _643  and  _645
REMARK  247  A    between atoms: _645  and  _646
REMARK  248  A    between atoms: _649  and  _651
REMARK  249  A    between atoms: _651  and  _652
REMARK  250  A    between atoms: _651  and  _654
REMARK  251  A    between atoms: _654  and  _655
REMARK  252  A    between atoms: _655  and  _656
REMARK  253  A    between atoms: _656  and  _657
REMARK  254  A    between atoms: _666  and  _668
REMARK  255  A    between atoms: _668  and  _669
REMARK  256  A    between atoms: _668  and  _671
REMARK  257  A    between atoms: _671  and  _672
REMARK  258  A    between atoms: _675  and  _677
REMARK  259  A    between atoms: _677  and  _678
REMARK  260  A    between atoms: _677  and  _680
REMARK  261  A    between atoms: _680  and  _681
REMARK  262  A    between atoms: _684  and  _686
REMARK  263  A    between atoms: _686  and  _687
REMARK  264  A    between atoms: _686  and  _689
REMARK  265  A    between atoms: _689  and  _690
REMARK                            x       y       z     vdW  Elec       q    Type
REMARK                         _______ _______ _______ _____ _____    ______ ____
ROOT
ATOM      1  O   HOH     1       8.698  13.104   9.834  0.00  0.00    +0.000 OA
ENDROOT
TORSDOF 0
REMARK  Name = ../refined-set-2016/1b2h/1b2h_pocket.pdb
REMARK  265 active torsions:
REMARK  status: ('A' for Active; 'I' for Inactive)
REMARK    1  A    between atoms: _1  and  _3
REMARK    2  A    between atoms: _3  and  _4
REMARK    3  A    between atoms: _3  and  _6
REMARK    4  A    between atoms: _6  and  _7
REMARK    5  A    between atoms: _12  and  _14
REMARK    6  A    between atoms: _14  and  _15
REMARK    7  A    between atoms: _17  and  _19
REMARK    8  A    between atoms: _19  and  _20
REMARK    9  A    between atoms: _19  and  _22
REMARK   10  A    between atoms: _22  and  _23
REMARK   11  A    between atoms: _25  and  _27
REMARK   12  A    between atoms: _27  and  _28
REMARK   13  A    between atoms: _27  and  _30
REMARK   14  A    between atoms: _30  and  _31
REMARK   15  A    between atoms: _31  and  _32
REMARK   16  A    between atoms: _37  and  _39
REMARK   17  A    between atoms: _39  and  _40
REMARK   18  A    between atoms: _39  and  _42
REMARK   19  A    between atoms: _42  and  _43
REMARK   20  A    between atoms: _46  and  _48
REMARK   21  A    between atoms: _48  and  _49
REMARK   22  A    between atoms: _48  and  _51
REMARK   23  A    between atoms: _52  and  _53
REMARK   24  A    between atoms: _56  and  _58
REMARK   25  A    between atoms: _58  and  _59
REMARK   26  A    between atoms: _61  and  _63
REMARK   27  A    between atoms: _63  and  _64
REMARK   28  A    between atoms: _63  and  _66
REMARK   29  A    between atoms: _70  and  _71
REMARK   30  A    between atoms: _76  and  _78
REMARK   31  A    between atoms: _78  and  _79
REMARK   32  A    between atoms: _78  and  _81
REMARK   33  A    between atoms: _81  and  _82
REMARK   34  A    between atoms: _82  and  _83
REMARK   35  A    between atoms: _86  and  _88
REMARK   36  A    between atoms: _88  and  _89
REMARK   37  A    between atoms: _88  and  _91
REMARK   38  A    between atoms: _91  and  _92
REMARK   39  A    between atoms: _94  and  _96
REMARK   40  A    between atoms: _96  and  _97
REMARK   41  A    between atoms: _96  and  _99
REMARK   42  A    between atoms: _99  and  _100
REMARK   43  A    between atoms: _105  and  _107
REMARK   44  A    between atoms: _107  and  _108
REMARK   45  A    between atoms: _107  and  _110
REMARK   46  A    between atoms: _110  and  _111
REMARK   47  A    between atoms: _111  and  _112
REMARK   48  A    between atoms: _112  and  _113
REMARK   49  A    between atoms: _123  and  _124
REMARK   50  A    between atoms: _129  and  _131
REMARK   51  A    between atoms: _131  and  _132
REMARK   52  A    between atoms: _131  and  _134
REMARK   53  A    between atoms: _134  and  _135
REMARK   54  A    between atoms: _140  and  _141
REMARK   55  A    between atoms: _143  and  _145
REMARK   56  A    between atoms: _145  and  _146
REMARK   57  A    between atoms: _145  and  _148
REMARK   58  A    between atoms: _148  and  _149
REMARK   59  A    between atoms: _154  and  _155
REMARK   60  A    between atoms: _157  and  _159
REMARK   61  A    between atoms: _159  and  _160
REMARK   62  A    between atoms: _159  and  _162
REMARK   63  A    between atoms: _165  and  _167
REMARK   64  A    between atoms: _167  and  _168
REMARK   65  A    between atoms: _167  and  _170
REMARK   66  A    between atoms: _170  and  _171
REMARK   67  A    between atoms: _177  and  _178
REMARK   68  A    between atoms: _183  and  _185
REMARK   69  A    between atoms: _185  and  _186
REMARK   70  A    between atoms: _185  and  _188
REMARK   71  A    between atoms: _188  and  _189
REMARK   72  A    between atoms: _191  and  _193
REMARK   73  A    between atoms: _193  and  _194
REMARK   74  A    between atoms: _193  and  _196
REMARK   75  A    between atoms: _196  and  _197
REMARK   76  A    between atoms: _197  and  _198
REMARK   77  A    between atoms: _201  and  _203
REMARK   78  A    between atoms: _203  and  _204
REMARK   79  A    between atoms: _203  and  _206
REMARK   80  A    between atoms: _206  and  _207
REMARK   81  A    between atoms: _212  and  _213
REMARK   82  A    between atoms: _215  and  _217
REMARK   83  A    between atoms: _217  and  _218
REMARK   84  A    between atoms: _217  and  _220
REMARK   85  A    between atoms: _220  and  _221
REMARK   86  A    between atoms: _226  and  _228
REMARK   87  A    between atoms: _228  and  _229
REMARK   88  A    between atoms: _228  and  _231
REMARK   89  A    between atoms: _231  and  _232
REMARK   90  A    between atoms: _237  and  _239
REMARK   91  A    between atoms: _239  and  _240
REMARK   92  A    between atoms: _239  and  _242
REMARK   93  A    between atoms: _242  and  _243
REMARK   94  A    between atoms: _243  and  _244
REMARK   95  A    between atoms: _246  and  _248
REMARK   96  A    between atoms: _248  and  _249
REMARK   97  A    between atoms: _248  and  _251
REMARK   98  A    between atoms: _251  and  _252
REMARK   99  A    between atoms: _257  and  _258
REMARK  100  A    between atoms: _260  and  _262
REMARK  101  A    between atoms: _262  and  _263
REMARK  102  A    between atoms: _262  and  _265
REMARK  103  A    between atoms: _265  and  _266
REMARK  104  A    between atoms: _269  and  _271
REMARK  105  A    between atoms: _271  and  _272
REMARK  106  A    between atoms: _271  and  _274
REMARK  107  A    between atoms: _274  and  _275
REMARK  108  A    between atoms: _275  and  _492
REMARK  109  A    between atoms: _276  and  _278
REMARK  110  A    between atoms: _278  and  _279
REMARK  111  A    between atoms: _278  and  _281
REMARK  112  A    between atoms: _281  and  _282
REMARK  113  A    between atoms: _285  and  _287
REMARK  114  A    between atoms: _287  and  _288
REMARK  115  A    between atoms: _287  and  _290
REMARK  116  A    between atoms: _290  and  _291
REMARK  117  A    between atoms: _296  and  _297
REMARK  118  A    between atoms: _299  and  _301
REMARK  119  A    between atoms: _301  and  _302
REMARK  120  A    between atoms: _301  and  _304
REMARK  121  A    between atoms: _304  and  _305
REMARK  122  A    between atoms: _310  and  _311
REMARK  123  A    between atoms: _313  and  _315
REMARK  124  A    between atoms: _315  and  _316
REMARK  125  A    between atoms: _315  and  _318
REMARK  126  A    between atoms: _318  and  _319
REMARK  127  A    between atoms: _319  and  _320
REMARK  128  A    between atoms: _323  and  _325
REMARK  129  A    between atoms: _325  and  _326
REMARK  130  A    between atoms: _325  and  _328
REMARK  131  A    between atoms: _328  and  _329
REMARK  132  A    between atoms: _334  and  _335
REMARK  133  A    between atoms: _337  and  _339
REMARK  134  A    between atoms: _339  and  _340
REMARK  135  A    between atoms: _339  and  _342
REMARK  136  A    between atoms: _342  and  _343
REMARK  137  A    between atoms: _348  and  _350
REMARK  138  A    between atoms: _350  and  _351
REMARK  139  A    between atoms: _350  and  _353
REMARK  140  A    between atoms: _353  and  _354
REMARK  141  A    between atoms: _357  and  _359
REMARK  142  A    between atoms: _359  and  _360
REMARK  143  A    between atoms: _359  and  _362
REMARK  144  A    between atoms: _362  and  _363
REMARK  145  A    between atoms: _368  and  _370
REMARK  146  A    between atoms: _370  and  _371
REMARK  147  A    between atoms: _370  and  _373
REMARK  148  A    between atoms: _373  and  _374
REMARK  149  A    between atoms: _384  and  _386
REMARK  150  A    between atoms: _386  and  _387
REMARK  151  A    between atoms: _386  and  _389
REMARK  152  A    between atoms: _389  and  _390
REMARK  153  A    between atoms: _396  and  _398
REMARK  154  A    between atoms: _398  and  _399
REMARK  155  A    between atoms: _398  and  _401
REMARK  156  A    between atoms: _401  and  _402
REMARK  157  A    between atoms: _405  and  _407
REMARK  158  A    between atoms: _407  and  _408
REMARK  159  A    between atoms: _407  and  _410
REMARK  160  A    between atoms: _410  and  _411
REMARK  161  A    between atoms: _414  and  _416
REMARK  162  A    between atoms: _416  and  _417
REMARK  163  A    between atoms: _416  and  _419
REMARK  164  A    between atoms: _419  and  _420
REMARK  165  A    between atoms: _420  and  _421
REMARK  166  A    between atoms: _421  and  _422
REMARK  167  A    between atoms: _431  and  _433
REMARK  168  A    between atoms: _433  and  _434
REMARK  169  A    between atoms: _433  and  _436
REMARK  170  A    between atoms: _436  and  _437
REMARK  171  A    between atoms: _442  and  _444
REMARK  172  A    between atoms: _444  and  _445
REMARK  173  A    between atoms: _444  and  _447
REMARK  174  A    between atoms: _447  and  _448
REMARK  175  A    between atoms: _449  and  _450
REMARK  176  A    between atoms: _459  and  _461
REMARK  177  A    between atoms: _461  and  _462
REMARK  178  A    between atoms: _465  and  _467
REMARK  179  A    between atoms: _467  and  _468
REMARK  180  A    between atoms: _470  and  _472
REMARK  181  A    between atoms: _472  and  _473
REMARK  182  A    between atoms: _472  and  _475
REMARK  183  A    between atoms: _475  and  _476
REMARK  184  A    between atoms: _486  and  _488
REMARK  185  A    between atoms: _488  and  _489
REMARK  186  A    between atoms: _488  and  _491
REMARK  187  A    between atoms: _491  and  _492
REMARK  188  A    between atoms: _493  and  _495
REMARK  189  A    between atoms: _495  and  _496
REMARK  190  A    between atoms: _499  and  _501
REMARK  191  A    between atoms: _501  and  _502
REMARK  192  A    between atoms: _501  and  _504
REMARK  193  A    between atoms: _504  and  _505
REMARK  194  A    between atoms: _508  and  _510
REMARK  195  A    between atoms: _510  and  _511
REMARK  196  A    between atoms: _510  and  _513
REMARK  197  A    between atoms: _513  and  _514
REMARK  198  A    between atoms: _519  and  _520
REMARK  199  A    between atoms: _522  and  _524
REMARK  200  A    between atoms: _524  and  _525
REMARK  201  A    between atoms: _524  and  _527
REMARK  202  A    between atoms: _527  and  _528
REMARK  203  A    between atoms: _530  and  _532
REMARK  204  A    between atoms: _532  and  _533
REMARK  205  A    between atoms: _532  and  _535
REMARK  206  A    between atoms: _535  and  _536
REMARK  207  A    between atoms: _542  and  _544
REMARK  208  A    between atoms: _544  and  _545
REMARK  209  A    between atoms: _544  and  _547
REMARK  210  A    between atoms: _547  and  _548
REMARK  211  A    between atoms: _551  and  _553
REMARK  212  A    between atoms: _553  and  _554
REMARK  213  A    between atoms: _553  and  _556
REMARK  214  A    between atoms: _556  and  _557
REMARK  215  A    between atoms: _559  and  _561
REMARK  216  A    between atoms: _561  and  _562
REMARK  217  A    between atoms: _561  and  _564
REMARK  218  A    between atoms: _564  and  _565
REMARK  219  A    between atoms: _570  and  _572
REMARK  220  A    between atoms: _572  and  _573
REMARK  221  A    between atoms: _572  and  _575
REMARK  222  A    between atoms: _575  and  _576
REMARK  223  A    between atoms: _581  and  _583
REMARK  224  A    between atoms: _583  and  _584
REMARK  225  A    between atoms: _583  and  _586
REMARK  226  A    between atoms: _586  and  _587
REMARK  227  A    between atoms: _590  and  _592
REMARK  228  A    between atoms: _592  and  _593
REMARK  229  A    between atoms: _596  and  _598
REMARK  230  A    between atoms: _598  and  _599
REMARK  231  A    between atoms: _598  and  _601
REMARK  232  A    between atoms: _601  and  _602
REMARK  233  A    between atoms: _607  and  _608
REMARK  234  A    between atoms: _610  and  _612
REMARK  235  A    between atoms: _612  and  _613
REMARK  236  A    between atoms: _612  and  _615
REMARK  237  A    between atoms: _615  and  _616
REMARK  238  A    between atoms: _621  and  _622
REMARK  239  A    between atoms: _624  and  _626
REMARK  240  A    between atoms: _626  and  _627
REMARK  241  A    between atoms: _626  and  _629
REMARK  242  A    between atoms: _632  and  _634
REMARK  243  A    between atoms: _634  and  _635
REMARK  244  A    between atoms: _634  and  _637
REMARK  245  A    between atoms: _637  and  _638
REMARK  246  A    between atoms: _643  and  _645
REMARK  247  A    between atoms: _645  and  _646
REMARK  248  A    between atoms: _649  and  _651
REMARK  249  A    between atoms: _651  and  _652
REMARK  250  A    between atoms: _651  and  _654
REMARK  251  A    between atoms: _654  and  _655
REMARK  252  A    between atoms: _655  and  _656
REMARK  253  A    between atoms: _656  and  _657
REMARK  254  A    between atoms: _666  and  _668
REMARK  255  A    between atoms: _668  and  _669
REMARK  256  A    between atoms: _668  and  _671
REMARK  257  A    between atoms: _671  and  _672
REMARK  258  A    between atoms: _675  and  _677
REMARK  259  A    between atoms: _677  and  _678
REMARK  260  A    between atoms: _677  and  _680
REMARK  261  A    between atoms: _680  and  _681
REMARK  262  A    between atoms: _684  and  _686
REMARK  263  A    between atoms: _686  and  _687
REMARK  264  A    between atoms: _686  and  _689
REMARK  265  A    between atoms: _689  and  _690
REMARK                            x       y       z     vdW  Elec       q    Type
REMARK                         _______ _______ _______ _____ _____    ______ ____
ROOT
ATOM      1  O   HOH     1       4.024  20.414  20.927  0.00  0.00    +0.000 OA
ENDROOT
TORSDOF 0
REMARK  Name = ../refined-set-2016/1b2h/1b2h_pocket.pdb
REMARK  265 active torsions:
REMARK  status: ('A' for Active; 'I' for Inactive)
REMARK    1  A    between atoms: _1  and  _3
REMARK    2  A    between atoms: _3  and  _4
REMARK    3  A    between atoms: _3  and  _6
REMARK    4  A    between atoms: _6  and  _7
REMARK    5  A    between atoms: _12  and  _14
REMARK    6  A    between atoms: _14  and  _15
REMARK    7  A    between atoms: _17  and  _19
REMARK    8  A    between atoms: _19  and  _20
REMARK    9  A    between atoms: _19  and  _22
REMARK   10  A    between atoms: _22  and  _23
REMARK   11  A    between atoms: _25  and  _27
REMARK   12  A    between atoms: _27  and  _28
REMARK   13  A    between atoms: _27  and  _30
REMARK   14  A    between atoms: _30  and  _31
REMARK   15  A    between atoms: _31  and  _32
REMARK   16  A    between atoms: _37  and  _39
REMARK   17  A    between atoms: _39  and  _40
REMARK   18  A    between atoms: _39  and  _42
REMARK   19  A    between atoms: _42  and  _43
REMARK   20  A    between atoms: _46  and  _48
REMARK   21  A    between atoms: _48  and  _49
REMARK   22  A    between atoms: _48  and  _51
REMARK   23  A    between atoms: _52  and  _53
REMARK   24  A    between atoms: _56  and  _58
REMARK   25  A    between atoms: _58  and  _59
REMARK   26  A    between atoms: _61  and  _63
REMARK   27  A    between atoms: _63  and  _64
REMARK   28  A    between atoms: _63  and  _66
REMARK   29  A    between atoms: _70  and  _71
REMARK   30  A    between atoms: _76  and  _78
REMARK   31  A    between atoms: _78  and  _79
REMARK   32  A    between atoms: _78  and  _81
REMARK   33  A    between atoms: _81  and  _82
REMARK   34  A    between atoms: _82  and  _83
REMARK   35  A    between atoms: _86  and  _88
REMARK   36  A    between atoms: _88  and  _89
REMARK   37  A    between atoms: _88  and  _91
REMARK   38  A    between atoms: _91  and  _92
REMARK   39  A    between atoms: _94  and  _96
REMARK   40  A    between atoms: _96  and  _97
REMARK   41  A    between atoms: _96  and  _99
REMARK   42  A    between atoms: _99  and  _100
REMARK   43  A    between atoms: _105  and  _107
REMARK   44  A    between atoms: _107  and  _108
REMARK   45  A    between atoms: _107  and  _110
REMARK   46  A    between atoms: _110  and  _111
REMARK   47  A    between atoms: _111  and  _112
REMARK   48  A    between atoms: _112  and  _113
REMARK   49  A    between atoms: _123  and  _124
REMARK   50  A    between atoms: _129  and  _131
REMARK   51  A    between atoms: _131  and  _132
REMARK   52  A    between atoms: _131  and  _134
REMARK   53  A    between atoms: _134  and  _135
REMARK   54  A    between atoms: _140  and  _141
REMARK   55  A    between atoms: _143  and  _145
REMARK   56  A    between atoms: _145  and  _146
REMARK   57  A    between atoms: _145  and  _148
REMARK   58  A    between atoms: _148  and  _149
REMARK   59  A    between atoms: _154  and  _155
REMARK   60  A    between atoms: _157  and  _159
REMARK   61  A    between atoms: _159  and  _160
REMARK   62  A    between atoms: _159  and  _162
REMARK   63  A    between atoms: _165  and  _167
REMARK   64  A    between atoms: _167  and  _168
REMARK   65  A    between atoms: _167  and  _170
REMARK   66  A    between atoms: _170  and  _171
REMARK   67  A    between atoms: _177  and  _178
REMARK   68  A    between atoms: _183  and  _185
REMARK   69  A    between atoms: _185  and  _186
REMARK   70  A    between atoms: _185  and  _188
REMARK   71  A    between atoms: _188  and  _189
REMARK   72  A    between atoms: _191  and  _193
REMARK   73  A    between atoms: _193  and  _194
REMARK   74  A    between atoms: _193  and  _196
REMARK   75  A    between atoms: _196  and  _197
REMARK   76  A    between atoms: _197  and  _198
REMARK   77  A    between atoms: _201  and  _203
REMARK   78  A    between atoms: _203  and  _204
REMARK   79  A    between atoms: _203  and  _206
REMARK   80  A    between atoms: _206  and  _207
REMARK   81  A    between atoms: _212  and  _213
REMARK   82  A    between atoms: _215  and  _217
REMARK   83  A    between atoms: _217  and  _218
REMARK   84  A    between atoms: _217  and  _220
REMARK   85  A    between atoms: _220  and  _221
REMARK   86  A    between atoms: _226  and  _228
REMARK   87  A    between atoms: _228  and  _229
REMARK   88  A    between atoms: _228  and  _231
REMARK   89  A    between atoms: _231  and  _232
REMARK   90  A    between atoms: _237  and  _239
REMARK   91  A    between atoms: _239  and  _240
REMARK   92  A    between atoms: _239  and  _242
REMARK   93  A    between atoms: _242  and  _243
REMARK   94  A    between atoms: _243  and  _244
REMARK   95  A    between atoms: _246  and  _248
REMARK   96  A    between atoms: _248  and  _249
REMARK   97  A    between atoms: _248  and  _251
REMARK   98  A    between atoms: _251  and  _252
REMARK   99  A    between atoms: _257  and  _258
REMARK  100  A    between atoms: _260  and  _262
REMARK  101  A    between atoms: _262  and  _263
REMARK  102  A    between atoms: _262  and  _265
REMARK  103  A    between atoms: _265  and  _266
REMARK  104  A    between atoms: _269  and  _271
REMARK  105  A    between atoms: _271  and  _272
REMARK  106  A    between atoms: _271  and  _274
REMARK  107  A    between atoms: _274  and  _275
REMARK  108  A    between atoms: _275  and  _492
REMARK  109  A    between atoms: _276  and  _278
REMARK  110  A    between atoms: _278  and  _279
REMARK  111  A    between atoms: _278  and  _281
REMARK  112  A    between atoms: _281  and  _282
REMARK  113  A    between atoms: _285  and  _287
REMARK  114  A    between atoms: _287  and  _288
REMARK  115  A    between atoms: _287  and  _290
REMARK  116  A    between atoms: _290  and  _291
REMARK  117  A    between atoms: _296  and  _297
REMARK  118  A    between atoms: _299  and  _301
REMARK  119  A    between atoms: _301  and  _302
REMARK  120  A    between atoms: _301  and  _304
REMARK  121  A    between atoms: _304  and  _305
REMARK  122  A    between atoms: _310  and  _311
REMARK  123  A    between atoms: _313  and  _315
REMARK  124  A    between atoms: _315  and  _316
REMARK  125  A    between atoms: _315  and  _318
REMARK  126  A    between atoms: _318  and  _319
REMARK  127  A    between atoms: _319  and  _320
REMARK  128  A    between atoms: _323  and  _325
REMARK  129  A    between atoms: _325  and  _326
REMARK  130  A    between atoms: _325  and  _328
REMARK  131  A    between atoms: _328  and  _329
REMARK  132  A    between atoms: _334  and  _335
REMARK  133  A    between atoms: _337  and  _339
REMARK  134  A    between atoms: _339  and  _340
REMARK  135  A    between atoms: _339  and  _342
REMARK  136  A    between atoms: _342  and  _343
REMARK  137  A    between atoms: _348  and  _350
REMARK  138  A    between atoms: _350  and  _351
REMARK  139  A    between atoms: _350  and  _353
REMARK  140  A    between atoms: _353  and  _354
REMARK  141  A    between atoms: _357  and  _359
REMARK  142  A    between atoms: _359  and  _360
REMARK  143  A    between atoms: _359  and  _362
REMARK  144  A    between atoms: _362  and  _363
REMARK  145  A    between atoms: _368  and  _370
REMARK  146  A    between atoms: _370  and  _371
REMARK  147  A    between atoms: _370  and  _373
REMARK  148  A    between atoms: _373  and  _374
REMARK  149  A    between atoms: _384  and  _386
REMARK  150  A    between atoms: _386  and  _387
REMARK  151  A    between atoms: _386  and  _389
REMARK  152  A    between atoms: _389  and  _390
REMARK  153  A    between atoms: _396  and  _398
REMARK  154  A    between atoms: _398  and  _399
REMARK  155  A    between atoms: _398  and  _401
REMARK  156  A    between atoms: _401  and  _402
REMARK  157  A    between atoms: _405  and  _407
REMARK  158  A    between atoms: _407  and  _408
REMARK  159  A    between atoms: _407  and  _410
REMARK  160  A    between atoms: _410  and  _411
REMARK  161  A    between atoms: _414  and  _416
REMARK  162  A    between atoms: _416  and  _417
REMARK  163  A    between atoms: _416  and  _419
REMARK  164  A    between atoms: _419  and  _420
REMARK  165  A    between atoms: _420  and  _421
REMARK  166  A    between atoms: _421  and  _422
REMARK  167  A    between atoms: _431  and  _433
REMARK  168  A    between atoms: _433  and  _434
REMARK  169  A    between atoms: _433  and  _436
REMARK  170  A    between atoms: _436  and  _437
REMARK  171  A    between atoms: _442  and  _444
REMARK  172  A    between atoms: _444  and  _445
REMARK  173  A    between atoms: _444  and  _447
REMARK  174  A    between atoms: _447  and  _448
REMARK  175  A    between atoms: _449  and  _450
REMARK  176  A    between atoms: _459  and  _461
REMARK  177  A    between atoms: _461  and  _462
REMARK  178  A    between atoms: _465  and  _467
REMARK  179  A    between atoms: _467  and  _468
REMARK  180  A    between atoms: _470  and  _472
REMARK  181  A    between atoms: _472  and  _473
REMARK  182  A    between atoms: _472  and  _475
REMARK  183  A    between atoms: _475  and  _476
REMARK  184  A    between atoms: _486  and  _488
REMARK  185  A    between atoms: _488  and  _489
REMARK  186  A    between atoms: _488  and  _491
REMARK  187  A    between atoms: _491  and  _492
REMARK  188  A    between atoms: _493  and  _495
REMARK  189  A    between atoms: _495  and  _496
REMARK  190  A    between atoms: _499  and  _501
REMARK  191  A    between atoms: _501  and  _502
REMARK  192  A    between atoms: _501  and  _504
REMARK  193  A    between atoms: _504  and  _505
REMARK  194  A    between atoms: _508  and  _510
REMARK  195  A    between atoms: _510  and  _511
REMARK  196  A    between atoms: _510  and  _513
REMARK  197  A    between atoms: _513  and  _514
REMARK  198  A    between atoms: _519  and  _520
REMARK  199  A    between atoms: _522  and  _524
REMARK  200  A    between atoms: _524  and  _525
REMARK  201  A    between atoms: _524  and  _527
REMARK  202  A    between atoms: _527  and  _528
REMARK  203  A    between atoms: _530  and  _532
REMARK  204  A    between atoms: _532  and  _533
REMARK  205  A    between atoms: _532  and  _535
REMARK  206  A    between atoms: _535  and  _536
REMARK  207  A    between atoms: _542  and  _544
REMARK  208  A    between atoms: _544  and  _545
REMARK  209  A    between atoms: _544  and  _547
REMARK  210  A    between atoms: _547  and  _548
REMARK  211  A    between atoms: _551  and  _553
REMARK  212  A    between atoms: _553  and  _554
REMARK  213  A    between atoms: _553  and  _556
REMARK  214  A    between atoms: _556  and  _557
REMARK  215  A    between atoms: _559  and  _561
REMARK  216  A    between atoms: _561  and  _562
REMARK  217  A    between atoms: _561  and  _564
REMARK  218  A    between atoms: _564  and  _565
REMARK  219  A    between atoms: _570  and  _572
REMARK  220  A    between atoms: _572  and  _573
REMARK  221  A    between atoms: _572  and  _575
REMARK  222  A    between atoms: _575  and  _576
REMARK  223  A    between atoms: _581  and  _583
REMARK  224  A    between atoms: _583  and  _584
REMARK  225  A    between atoms: _583  and  _586
REMARK  226  A    between atoms: _586  and  _587
REMARK  227  A    between atoms: _590  and  _592
REMARK  228  A    between atoms: _592  and  _593
REMARK  229  A    between atoms: _596  and  _598
REMARK  230  A    between atoms: _598  and  _599
REMARK  231  A    between atoms: _598  and  _601
REMARK  232  A    between atoms: _601  and  _602
REMARK  233  A    between atoms: _607  and  _608
REMARK  234  A    between atoms: _610  and  _612
REMARK  235  A    between atoms: _612  and  _613
REMARK  236  A    between atoms: _612  and  _615
REMARK  237  A    between atoms: _615  and  _616
REMARK  238  A    between atoms: _621  and  _622
REMARK  239  A    between atoms: _624  and  _626
REMARK  240  A    between atoms: _626  and  _627
REMARK  241  A    between atoms: _626  and  _629
REMARK  242  A    between atoms: _632  and  _634
REMARK  243  A    between atoms: _634  and  _635
REMARK  244  A    between atoms: _634  and  _637
REMARK  245  A    between atoms: _637  and  _638
REMARK  246  A    between atoms: _643  and  _645
REMARK  247  A    between atoms: _645  and  _646
REMARK  248  A    between atoms: _649  and  _651
REMARK  249  A    between atoms: _651  and  _652
REMARK  250  A    between atoms: _651  and  _654
REMARK  251  A    between atoms: _654  and  _655
REMARK  252  A    between atoms: _655  and  _656
REMARK  253  A    between atoms: _656  and  _657
REMARK  254  A    between atoms: _666  and  _668
REMARK  255  A    between atoms: _668  and  _669
REMARK  256  A    between atoms: _668  and  _671
REMARK  257  A    between atoms: _671  and  _672
REMARK  258  A    between atoms: _675  and  _677
REMARK  259  A    between atoms: _677  and  _678
REMARK  260  A    between atoms: _677  and  _680
REMARK  261  A    between atoms: _680  and  _681
REMARK  262  A    between atoms: _684  and  _686
REMARK  263  A    between atoms: _686  and  _687
REMARK  264  A    between atoms: _686  and  _689
REMARK  265  A    between atoms: _689  and  _690
REMARK                            x       y       z     vdW  Elec       q    Type
REMARK                         _______ _______ _______ _____ _____    ______ ____
ROOT
ATOM      1  O   HOH     1       5.886   8.061   7.764  0.00  0.00    +0.000 OA
ENDROOT
TORSDOF 0
REMARK  Name = ../refined-set-2016/1b2h/1b2h_pocket.pdb
REMARK  265 active torsions:
REMARK  status: ('A' for Active; 'I' for Inactive)
REMARK    1  A    between atoms: _1  and  _3
REMARK    2  A    between atoms: _3  and  _4
REMARK    3  A    between atoms: _3  and  _6
REMARK    4  A    between atoms: _6  and  _7
REMARK    5  A    between atoms: _12  and  _14
REMARK    6  A    between atoms: _14  and  _15
REMARK    7  A    between atoms: _17  and  _19
REMARK    8  A    between atoms: _19  and  _20
REMARK    9  A    between atoms: _19  and  _22
REMARK   10  A    between atoms: _22  and  _23
REMARK   11  A    between atoms: _25  and  _27
REMARK   12  A    between atoms: _27  and  _28
REMARK   13  A    between atoms: _27  and  _30
REMARK   14  A    between atoms: _30  and  _31
REMARK   15  A    between atoms: _31  and  _32
REMARK   16  A    between atoms: _37  and  _39
REMARK   17  A    between atoms: _39  and  _40
REMARK   18  A    between atoms: _39  and  _42
REMARK   19  A    between atoms: _42  and  _43
REMARK   20  A    between atoms: _46  and  _48
REMARK   21  A    between atoms: _48  and  _49
REMARK   22  A    between atoms: _48  and  _51
REMARK   23  A    between atoms: _52  and  _53
REMARK   24  A    between atoms: _56  and  _58
REMARK   25  A    between atoms: _58  and  _59
REMARK   26  A    between atoms: _61  and  _63
REMARK   27  A    between atoms: _63  and  _64
REMARK   28  A    between atoms: _63  and  _66
REMARK   29  A    between atoms: _70  and  _71
REMARK   30  A    between atoms: _76  and  _78
REMARK   31  A    between atoms: _78  and  _79
REMARK   32  A    between atoms: _78  and  _81
REMARK   33  A    between atoms: _81  and  _82
REMARK   34  A    between atoms: _82  and  _83
REMARK   35  A    between atoms: _86  and  _88
REMARK   36  A    between atoms: _88  and  _89
REMARK   37  A    between atoms: _88  and  _91
REMARK   38  A    between atoms: _91  and  _92
REMARK   39  A    between atoms: _94  and  _96
REMARK   40  A    between atoms: _96  and  _97
REMARK   41  A    between atoms: _96  and  _99
REMARK   42  A    between atoms: _99  and  _100
REMARK   43  A    between atoms: _105  and  _107
REMARK   44  A    between atoms: _107  and  _108
REMARK   45  A    between atoms: _107  and  _110
REMARK   46  A    between atoms: _110  and  _111
REMARK   47  A    between atoms: _111  and  _112
REMARK   48  A    between atoms: _112  and  _113
REMARK   49  A    between atoms: _123  and  _124
REMARK   50  A    between atoms: _129  and  _131
REMARK   51  A    between atoms: _131  and  _132
REMARK   52  A    between atoms: _131  and  _134
REMARK   53  A    between atoms: _134  and  _135
REMARK   54  A    between atoms: _140  and  _141
REMARK   55  A    between atoms: _143  and  _145
REMARK   56  A    between atoms: _145  and  _146
REMARK   57  A    between atoms: _145  and  _148
REMARK   58  A    between atoms: _148  and  _149
REMARK   59  A    between atoms: _154  and  _155
REMARK   60  A    between atoms: _157  and  _159
REMARK   61  A    between atoms: _159  and  _160
REMARK   62  A    between atoms: _159  and  _162
REMARK   63  A    between atoms: _165  and  _167
REMARK   64  A    between atoms: _167  and  _168
REMARK   65  A    between atoms: _167  and  _170
REMARK   66  A    between atoms: _170  and  _171
REMARK   67  A    between atoms: _177  and  _178
REMARK   68  A    between atoms: _183  and  _185
REMARK   69  A    between atoms: _185  and  _186
REMARK   70  A    between atoms: _185  and  _188
REMARK   71  A    between atoms: _188  and  _189
REMARK   72  A    between atoms: _191  and  _193
REMARK   73  A    between atoms: _193  and  _194
REMARK   74  A    between atoms: _193  and  _196
REMARK   75  A    between atoms: _196  and  _197
REMARK   76  A    between atoms: _197  and  _198
REMARK   77  A    between atoms: _201  and  _203
REMARK   78  A    between atoms: _203  and  _204
REMARK   79  A    between atoms: _203  and  _206
REMARK   80  A    between atoms: _206  and  _207
REMARK   81  A    between atoms: _212  and  _213
REMARK   82  A    between atoms: _215  and  _217
REMARK   83  A    between atoms: _217  and  _218
REMARK   84  A    between atoms: _217  and  _220
REMARK   85  A    between atoms: _220  and  _221
REMARK   86  A    between atoms: _226  and  _228
REMARK   87  A    between atoms: _228  and  _229
REMARK   88  A    between atoms: _228  and  _231
REMARK   89  A    between atoms: _231  and  _232
REMARK   90  A    between atoms: _237  and  _239
REMARK   91  A    between atoms: _239  and  _240
REMARK   92  A    between atoms: _239  and  _242
REMARK   93  A    between atoms: _242  and  _243
REMARK   94  A    between atoms: _243  and  _244
REMARK   95  A    between atoms: _246  and  _248
REMARK   96  A    between atoms: _248  and  _249
REMARK   97  A    between atoms: _248  and  _251
REMARK   98  A    between atoms: _251  and  _252
REMARK   99  A    between atoms: _257  and  _258
REMARK  100  A    between atoms: _260  and  _262
REMARK  101  A    between atoms: _262  and  _263
REMARK  102  A    between atoms: _262  and  _265
REMARK  103  A    between atoms: _265  and  _266
REMARK  104  A    between atoms: _269  and  _271
REMARK  105  A    between atoms: _271  and  _272
REMARK  106  A    between atoms: _271  and  _274
REMARK  107  A    between atoms: _274  and  _275
REMARK  108  A    between atoms: _275  and  _492
REMARK  109  A    between atoms: _276  and  _278
REMARK  110  A    between atoms: _278  and  _279
REMARK  111  A    between atoms: _278  and  _281
REMARK  112  A    between atoms: _281  and  _282
REMARK  113  A    between atoms: _285  and  _287
REMARK  114  A    between atoms: _287  and  _288
REMARK  115  A    between atoms: _287  and  _290
REMARK  116  A    between atoms: _290  and  _291
REMARK  117  A    between atoms: _296  and  _297
REMARK  118  A    between atoms: _299  and  _301
REMARK  119  A    between atoms: _301  and  _302
REMARK  120  A    between atoms: _301  and  _304
REMARK  121  A    between atoms: _304  and  _305
REMARK  122  A    between atoms: _310  and  _311
REMARK  123  A    between atoms: _313  and  _315
REMARK  124  A    between atoms: _315  and  _316
REMARK  125  A    between atoms: _315  and  _318
REMARK  126  A    between atoms: _318  and  _319
REMARK  127  A    between atoms: _319  and  _320
REMARK  128  A    between atoms: _323  and  _325
REMARK  129  A    between atoms: _325  and  _326
REMARK  130  A    between atoms: _325  and  _328
REMARK  131  A    between atoms: _328  and  _329
REMARK  132  A    between atoms: _334  and  _335
REMARK  133  A    between atoms: _337  and  _339
REMARK  134  A    between atoms: _339  and  _340
REMARK  135  A    between atoms: _339  and  _342
REMARK  136  A    between atoms: _342  and  _343
REMARK  137  A    between atoms: _348  and  _350
REMARK  138  A    between atoms: _350  and  _351
REMARK  139  A    between atoms: _350  and  _353
REMARK  140  A    between atoms: _353  and  _354
REMARK  141  A    between atoms: _357  and  _359
REMARK  142  A    between atoms: _359  and  _360
REMARK  143  A    between atoms: _359  and  _362
REMARK  144  A    between atoms: _362  and  _363
REMARK  145  A    between atoms: _368  and  _370
REMARK  146  A    between atoms: _370  and  _371
REMARK  147  A    between atoms: _370  and  _373
REMARK  148  A    between atoms: _373  and  _374
REMARK  149  A    between atoms: _384  and  _386
REMARK  150  A    between atoms: _386  and  _387
REMARK  151  A    between atoms: _386  and  _389
REMARK  152  A    between atoms: _389  and  _390
REMARK  153  A    between atoms: _396  and  _398
REMARK  154  A    between atoms: _398  and  _399
REMARK  155  A    between atoms: _398  and  _401
REMARK  156  A    between atoms: _401  and  _402
REMARK  157  A    between atoms: _405  and  _407
REMARK  158  A    between atoms: _407  and  _408
REMARK  159  A    between atoms: _407  and  _410
REMARK  160  A    between atoms: _410  and  _411
REMARK  161  A    between atoms: _414  and  _416
REMARK  162  A    between atoms: _416  and  _417
REMARK  163  A    between atoms: _416  and  _419
REMARK  164  A    between atoms: _419  and  _420
REMARK  165  A    between atoms: _420  and  _421
REMARK  166  A    between atoms: _421  and  _422
REMARK  167  A    between atoms: _431  and  _433
REMARK  168  A    between atoms: _433  and  _434
REMARK  169  A    between atoms: _433  and  _436
REMARK  170  A    between atoms: _436  and  _437
REMARK  171  A    between atoms: _442  and  _444
REMARK  172  A    between atoms: _444  and  _445
REMARK  173  A    between atoms: _444  and  _447
REMARK  174  A    between atoms: _447  and  _448
REMARK  175  A    between atoms: _449  and  _450
REMARK  176  A    between atoms: _459  and  _461
REMARK  177  A    between atoms: _461  and  _462
REMARK  178  A    between atoms: _465  and  _467
REMARK  179  A    between atoms: _467  and  _468
REMARK  180  A    between atoms: _470  and  _472
REMARK  181  A    between atoms: _472  and  _473
REMARK  182  A    between atoms: _472  and  _475
REMARK  183  A    between atoms: _475  and  _476
REMARK  184  A    between atoms: _486  and  _488
REMARK  185  A    between atoms: _488  and  _489
REMARK  186  A    between atoms: _488  and  _491
REMARK  187  A    between atoms: _491  and  _492
REMARK  188  A    between atoms: _493  and  _495
REMARK  189  A    between atoms: _495  and  _496
REMARK  190  A    between atoms: _499  and  _501
REMARK  191  A    between atoms: _501  and  _502
REMARK  192  A    between atoms: _501  and  _504
REMARK  193  A    between atoms: _504  and  _505
REMARK  194  A    between atoms: _508  and  _510
REMARK  195  A    between atoms: _510  and  _511
REMARK  196  A    between atoms: _510  and  _513
REMARK  197  A    between atoms: _513  and  _514
REMARK  198  A    between atoms: _519  and  _520
REMARK  199  A    between atoms: _522  and  _524
REMARK  200  A    between atoms: _524  and  _525
REMARK  201  A    between atoms: _524  and  _527
REMARK  202  A    between atoms: _527  and  _528
REMARK  203  A    between atoms: _530  and  _532
REMARK  204  A    between atoms: _532  and  _533
REMARK  205  A    between atoms: _532  and  _535
REMARK  206  A    between atoms: _535  and  _536
REMARK  207  A    between atoms: _542  and  _544
REMARK  208  A    between atoms: _544  and  _545
REMARK  209  A    between atoms: _544  and  _547
REMARK  210  A    between atoms: _547  and  _548
REMARK  211  A    between atoms: _551  and  _553
REMARK  212  A    between atoms: _553  and  _554
REMARK  213  A    between atoms: _553  and  _556
REMARK  214  A    between atoms: _556  and  _557
REMARK  215  A    between atoms: _559  and  _561
REMARK  216  A    between atoms: _561  and  _562
REMARK  217  A    between atoms: _561  and  _564
REMARK  218  A    between atoms: _564  and  _565
REMARK  219  A    between atoms: _570  and  _572
REMARK  220  A    between atoms: _572  and  _573
REMARK  221  A    between atoms: _572  and  _575
REMARK  222  A    between atoms: _575  and  _576
REMARK  223  A    between atoms: _581  and  _583
REMARK  224  A    between atoms: _583  and  _584
REMARK  225  A    between atoms: _583  and  _586
REMARK  226  A    between atoms: _586  and  _587
REMARK  227  A    between atoms: _590  and  _592
REMARK  228  A    between atoms: _592  and  _593
REMARK  229  A    between atoms: _596  and  _598
REMARK  230  A    between atoms: _598  and  _599
REMARK  231  A    between atoms: _598  and  _601
REMARK  232  A    between atoms: _601  and  _602
REMARK  233  A    between atoms: _607  and  _608
REMARK  234  A    between atoms: _610  and  _612
REMARK  235  A    between atoms: _612  and  _613
REMARK  236  A    between atoms: _612  and  _615
REMARK  237  A    between atoms: _615  and  _616
REMARK  238  A    between atoms: _621  and  _622
REMARK  239  A    between atoms: _624  and  _626
REMARK  240  A    between atoms: _626  and  _627
REMARK  241  A    between atoms: _626  and  _629
REMARK  242  A    between atoms: _632  and  _634
REMARK  243  A    between atoms: _634  and  _635
REMARK  244  A    between atoms: _634  and  _637
REMARK  245  A    between atoms: _637  and  _638
REMARK  246  A    between atoms: _643  and  _645
REMARK  247  A    between atoms: _645  and  _646
REMARK  248  A    between atoms: _649  and  _651
REMARK  249  A    between atoms: _651  and  _652
REMARK  250  A    between atoms: _651  and  _654
REMARK  251  A    between atoms: _654  and  _655
REMARK  252  A    between atoms: _655  and  _656
REMARK  253  A    between atoms: _656  and  _657
REMARK  254  A    between atoms: _666  and  _668
REMARK  255  A    between atoms: _668  and  _669
REMARK  256  A    between atoms: _668  and  _671
REMARK  257  A    between atoms: _671  and  _672
REMARK  258  A    between atoms: _675  and  _677
REMARK  259  A    between atoms: _677  and  _678
REMARK  260  A    between atoms: _677  and  _680
REMARK  261  A    between atoms: _680  and  _681
REMARK  262  A    between atoms: _684  and  _686
REMARK  263  A    between atoms: _686  and  _687
REMARK  264  A    between atoms: _686  and  _689
REMARK  265  A    between atoms: _689  and  _690
REMARK                            x       y       z     vdW  Elec       q    Type
REMARK                         _______ _______ _______ _____ _____    ______ ____
ROOT
ATOM      1  O   HOH     1      -7.833  14.114  16.613  0.00  0.00    +0.000 OA
ENDROOT
TORSDOF 0
REMARK  Name = ../refined-set-2016/1b2h/1b2h_pocket.pdb
REMARK  265 active torsions:
REMARK  status: ('A' for Active; 'I' for Inactive)
REMARK    1  A    between atoms: _1  and  _3
REMARK    2  A    between atoms: _3  and  _4
REMARK    3  A    between atoms: _3  and  _6
REMARK    4  A    between atoms: _6  and  _7
REMARK    5  A    between atoms: _12  and  _14
REMARK    6  A    between atoms: _14  and  _15
REMARK    7  A    between atoms: _17  and  _19
REMARK    8  A    between atoms: _19  and  _20
REMARK    9  A    between atoms: _19  and  _22
REMARK   10  A    between atoms: _22  and  _23
REMARK   11  A    between atoms: _25  and  _27
REMARK   12  A    between atoms: _27  and  _28
REMARK   13  A    between atoms: _27  and  _30
REMARK   14  A    between atoms: _30  and  _31
REMARK   15  A    between atoms: _31  and  _32
REMARK   16  A    between atoms: _37  and  _39
REMARK   17  A    between atoms: _39  and  _40
REMARK   18  A    between atoms: _39  and  _42
REMARK   19  A    between atoms: _42  and  _43
REMARK   20  A    between atoms: _46  and  _48
REMARK   21  A    between atoms: _48  and  _49
REMARK   22  A    between atoms: _48  and  _51
REMARK   23  A    between atoms: _52  and  _53
REMARK   24  A    between atoms: _56  and  _58
REMARK   25  A    between atoms: _58  and  _59
REMARK   26  A    between atoms: _61  and  _63
REMARK   27  A    between atoms: _63  and  _64
REMARK   28  A    between atoms: _63  and  _66
REMARK   29  A    between atoms: _70  and  _71
REMARK   30  A    between atoms: _76  and  _78
REMARK   31  A    between atoms: _78  and  _79
REMARK   32  A    between atoms: _78  and  _81
REMARK   33  A    between atoms: _81  and  _82
REMARK   34  A    between atoms: _82  and  _83
REMARK   35  A    between atoms: _86  and  _88
REMARK   36  A    between atoms: _88  and  _89
REMARK   37  A    between atoms: _88  and  _91
REMARK   38  A    between atoms: _91  and  _92
REMARK   39  A    between atoms: _94  and  _96
REMARK   40  A    between atoms: _96  and  _97
REMARK   41  A    between atoms: _96  and  _99
REMARK   42  A    between atoms: _99  and  _100
REMARK   43  A    between atoms: _105  and  _107
REMARK   44  A    between atoms: _107  and  _108
REMARK   45  A    between atoms: _107  and  _110
REMARK   46  A    between atoms: _110  and  _111
REMARK   47  A    between atoms: _111  and  _112
REMARK   48  A    between atoms: _112  and  _113
REMARK   49  A    between atoms: _123  and  _124
REMARK   50  A    between atoms: _129  and  _131
REMARK   51  A    between atoms: _131  and  _132
REMARK   52  A    between atoms: _131  and  _134
REMARK   53  A    between atoms: _134  and  _135
REMARK   54  A    between atoms: _140  and  _141
REMARK   55  A    between atoms: _143  and  _145
REMARK   56  A    between atoms: _145  and  _146
REMARK   57  A    between atoms: _145  and  _148
REMARK   58  A    between atoms: _148  and  _149
REMARK   59  A    between atoms: _154  and  _155
REMARK   60  A    between atoms: _157  and  _159
REMARK   61  A    between atoms: _159  and  _160
REMARK   62  A    between atoms: _159  and  _162
REMARK   63  A    between atoms: _165  and  _167
REMARK   64  A    between atoms: _167  and  _168
REMARK   65  A    between atoms: _167  and  _170
REMARK   66  A    between atoms: _170  and  _171
REMARK   67  A    between atoms: _177  and  _178
REMARK   68  A    between atoms: _183  and  _185
REMARK   69  A    between atoms: _185  and  _186
REMARK   70  A    between atoms: _185  and  _188
REMARK   71  A    between atoms: _188  and  _189
REMARK   72  A    between atoms: _191  and  _193
REMARK   73  A    between atoms: _193  and  _194
REMARK   74  A    between atoms: _193  and  _196
REMARK   75  A    between atoms: _196  and  _197
REMARK   76  A    between atoms: _197  and  _198
REMARK   77  A    between atoms: _201  and  _203
REMARK   78  A    between atoms: _203  and  _204
REMARK   79  A    between atoms: _203  and  _206
REMARK   80  A    between atoms: _206  and  _207
REMARK   81  A    between atoms: _212  and  _213
REMARK   82  A    between atoms: _215  and  _217
REMARK   83  A    between atoms: _217  and  _218
REMARK   84  A    between atoms: _217  and  _220
REMARK   85  A    between atoms: _220  and  _221
REMARK   86  A    between atoms: _226  and  _228
REMARK   87  A    between atoms: _228  and  _229
REMARK   88  A    between atoms: _228  and  _231
REMARK   89  A    between atoms: _231  and  _232
REMARK   90  A    between atoms: _237  and  _239
REMARK   91  A    between atoms: _239  and  _240
REMARK   92  A    between atoms: _239  and  _242
REMARK   93  A    between atoms: _242  and  _243
REMARK   94  A    between atoms: _243  and  _244
REMARK   95  A    between atoms: _246  and  _248
REMARK   96  A    between atoms: _248  and  _249
REMARK   97  A    between atoms: _248  and  _251
REMARK   98  A    between atoms: _251  and  _252
REMARK   99  A    between atoms: _257  and  _258
REMARK  100  A    between atoms: _260  and  _262
REMARK  101  A    between atoms: _262  and  _263
REMARK  102  A    between atoms: _262  and  _265
REMARK  103  A    between atoms: _265  and  _266
REMARK  104  A    between atoms: _269  and  _271
REMARK  105  A    between atoms: _271  and  _272
REMARK  106  A    between atoms: _271  and  _274
REMARK  107  A    between atoms: _274  and  _275
REMARK  108  A    between atoms: _275  and  _492
REMARK  109  A    between atoms: _276  and  _278
REMARK  110  A    between atoms: _278  and  _279
REMARK  111  A    between atoms: _278  and  _281
REMARK  112  A    between atoms: _281  and  _282
REMARK  113  A    between atoms: _285  and  _287
REMARK  114  A    between atoms: _287  and  _288
REMARK  115  A    between atoms: _287  and  _290
REMARK  116  A    between atoms: _290  and  _291
REMARK  117  A    between atoms: _296  and  _297
REMARK  118  A    between atoms: _299  and  _301
REMARK  119  A    between atoms: _301  and  _302
REMARK  120  A    between atoms: _301  and  _304
REMARK  121  A    between atoms: _304  and  _305
REMARK  122  A    between atoms: _310  and  _311
REMARK  123  A    between atoms: _313  and  _315
REMARK  124  A    between atoms: _315  and  _316
REMARK  125  A    between atoms: _315  and  _318
REMARK  126  A    between atoms: _318  and  _319
REMARK  127  A    between atoms: _319  and  _320
REMARK  128  A    between atoms: _323  and  _325
REMARK  129  A    between atoms: _325  and  _326
REMARK  130  A    between atoms: _325  and  _328
REMARK  131  A    between atoms: _328  and  _329
REMARK  132  A    between atoms: _334  and  _335
REMARK  133  A    between atoms: _337  and  _339
REMARK  134  A    between atoms: _339  and  _340
REMARK  135  A    between atoms: _339  and  _342
REMARK  136  A    between atoms: _342  and  _343
REMARK  137  A    between atoms: _348  and  _350
REMARK  138  A    between atoms: _350  and  _351
REMARK  139  A    between atoms: _350  and  _353
REMARK  140  A    between atoms: _353  and  _354
REMARK  141  A    between atoms: _357  and  _359
REMARK  142  A    between atoms: _359  and  _360
REMARK  143  A    between atoms: _359  and  _362
REMARK  144  A    between atoms: _362  and  _363
REMARK  145  A    between atoms: _368  and  _370
REMARK  146  A    between atoms: _370  and  _371
REMARK  147  A    between atoms: _370  and  _373
REMARK  148  A    between atoms: _373  and  _374
REMARK  149  A    between atoms: _384  and  _386
REMARK  150  A    between atoms: _386  and  _387
REMARK  151  A    between atoms: _386  and  _389
REMARK  152  A    between atoms: _389  and  _390
REMARK  153  A    between atoms: _396  and  _398
REMARK  154  A    between atoms: _398  and  _399
REMARK  155  A    between atoms: _398  and  _401
REMARK  156  A    between atoms: _401  and  _402
REMARK  157  A    between atoms: _405  and  _407
REMARK  158  A    between atoms: _407  and  _408
REMARK  159  A    between atoms: _407  and  _410
REMARK  160  A    between atoms: _410  and  _411
REMARK  161  A    between atoms: _414  and  _416
REMARK  162  A    between atoms: _416  and  _417
REMARK  163  A    between atoms: _416  and  _419
REMARK  164  A    between atoms: _419  and  _420
REMARK  165  A    between atoms: _420  and  _421
REMARK  166  A    between atoms: _421  and  _422
REMARK  167  A    between atoms: _431  and  _433
REMARK  168  A    between atoms: _433  and  _434
REMARK  169  A    between atoms: _433  and  _436
REMARK  170  A    between atoms: _436  and  _437
REMARK  171  A    between atoms: _442  and  _444
REMARK  172  A    between atoms: _444  and  _445
REMARK  173  A    between atoms: _444  and  _447
REMARK  174  A    between atoms: _447  and  _448
REMARK  175  A    between atoms: _449  and  _450
REMARK  176  A    between atoms: _459  and  _461
REMARK  177  A    between atoms: _461  and  _462
REMARK  178  A    between atoms: _465  and  _467
REMARK  179  A    between atoms: _467  and  _468
REMARK  180  A    between atoms: _470  and  _472
REMARK  181  A    between atoms: _472  and  _473
REMARK  182  A    between atoms: _472  and  _475
REMARK  183  A    between atoms: _475  and  _476
REMARK  184  A    between atoms: _486  and  _488
REMARK  185  A    between atoms: _488  and  _489
REMARK  186  A    between atoms: _488  and  _491
REMARK  187  A    between atoms: _491  and  _492
REMARK  188  A    between atoms: _493  and  _495
REMARK  189  A    between atoms: _495  and  _496
REMARK  190  A    between atoms: _499  and  _501
REMARK  191  A    between atoms: _501  and  _502
REMARK  192  A    between atoms: _501  and  _504
REMARK  193  A    between atoms: _504  and  _505
REMARK  194  A    between atoms: _508  and  _510
REMARK  195  A    between atoms: _510  and  _511
REMARK  196  A    between atoms: _510  and  _513
REMARK  197  A    between atoms: _513  and  _514
REMARK  198  A    between atoms: _519  and  _520
REMARK  199  A    between atoms: _522  and  _524
REMARK  200  A    between atoms: _524  and  _525
REMARK  201  A    between atoms: _524  and  _527
REMARK  202  A    between atoms: _527  and  _528
REMARK  203  A    between atoms: _530  and  _532
REMARK  204  A    between atoms: _532  and  _533
REMARK  205  A    between atoms: _532  and  _535
REMARK  206  A    between atoms: _535  and  _536
REMARK  207  A    between atoms: _542  and  _544
REMARK  208  A    between atoms: _544  and  _545
REMARK  209  A    between atoms: _544  and  _547
REMARK  210  A    between atoms: _547  and  _548
REMARK  211  A    between atoms: _551  and  _553
REMARK  212  A    between atoms: _553  and  _554
REMARK  213  A    between atoms: _553  and  _556
REMARK  214  A    between atoms: _556  and  _557
REMARK  215  A    between atoms: _559  and  _561
REMARK  216  A    between atoms: _561  and  _562
REMARK  217  A    between atoms: _561  and  _564
REMARK  218  A    between atoms: _564  and  _565
REMARK  219  A    between atoms: _570  and  _572
REMARK  220  A    between atoms: _572  and  _573
REMARK  221  A    between atoms: _572  and  _575
REMARK  222  A    between atoms: _575  and  _576
REMARK  223  A    between atoms: _581  and  _583
REMARK  224  A    between atoms: _583  and  _584
REMARK  225  A    between atoms: _583  and  _586
REMARK  226  A    between atoms: _586  and  _587
REMARK  227  A    between atoms: _590  and  _592
REMARK  228  A    between atoms: _592  and  _593
REMARK  229  A    between atoms: _596  and  _598
REMARK  230  A    between atoms: _598  and  _599
REMARK  231  A    between atoms: _598  and  _601
REMARK  232  A    between atoms: _601  and  _602
REMARK  233  A    between atoms: _607  and  _608
REMARK  234  A    between atoms: _610  and  _612
REMARK  235  A    between atoms: _612  and  _613
REMARK  236  A    between atoms: _612  and  _615
REMARK  237  A    between atoms: _615  and  _616
REMARK  238  A    between atoms: _621  and  _622
REMARK  239  A    between atoms: _624  and  _626
REMARK  240  A    between atoms: _626  and  _627
REMARK  241  A    between atoms: _626  and  _629
REMARK  242  A    between atoms: _632  and  _634
REMARK  243  A    between atoms: _634  and  _635
REMARK  244  A    between atoms: _634  and  _637
REMARK  245  A    between atoms: _637  and  _638
REMARK  246  A    between atoms: _643  and  _645
REMARK  247  A    between atoms: _645  and  _646
REMARK  248  A    between atoms: _649  and  _651
REMARK  249  A    between atoms: _651  and  _652
REMARK  250  A    between atoms: _651  and  _654
REMARK  251  A    between atoms: _654  and  _655
REMARK  252  A    between atoms: _655  and  _656
REMARK  253  A    between atoms: _656  and  _657
REMARK  254  A    between atoms: _666  and  _668
REMARK  255  A    between atoms: _668  and  _669
REMARK  256  A    between atoms: _668  and  _671
REMARK  257  A    between atoms: _671  and  _672
REMARK  258  A    between atoms: _675  and  _677
REMARK  259  A    between atoms: _677  and  _678
REMARK  260  A    between atoms: _677  and  _680
REMARK  261  A    between atoms: _680  and  _681
REMARK  262  A    between atoms: _684  and  _686
REMARK  263  A    between atoms: _686  and  _687
REMARK  264  A    between atoms: _686  and  _689
REMARK  265  A    between atoms: _689  and  _690
REMARK                            x       y       z     vdW  Elec       q    Type
REMARK                         _______ _______ _______ _____ _____    ______ ____
ROOT
ATOM      1  O   HOH     1       3.703  13.080  12.048  0.00  0.00    +0.000 OA
ENDROOT
TORSDOF 0
REMARK  Name = ../refined-set-2016/1b2h/1b2h_pocket.pdb
REMARK  265 active torsions:
REMARK  status: ('A' for Active; 'I' for Inactive)
REMARK    1  A    between atoms: _1  and  _3
REMARK    2  A    between atoms: _3  and  _4
REMARK    3  A    between atoms: _3  and  _6
REMARK    4  A    between atoms: _6  and  _7
REMARK    5  A    between atoms: _12  and  _14
REMARK    6  A    between atoms: _14  and  _15
REMARK    7  A    between atoms: _17  and  _19
REMARK    8  A    between atoms: _19  and  _20
REMARK    9  A    between atoms: _19  and  _22
REMARK   10  A    between atoms: _22  and  _23
REMARK   11  A    between atoms: _25  and  _27
REMARK   12  A    between atoms: _27  and  _28
REMARK   13  A    between atoms: _27  and  _30
REMARK   14  A    between atoms: _30  and  _31
REMARK   15  A    between atoms: _31  and  _32
REMARK   16  A    between atoms: _37  and  _39
REMARK   17  A    between atoms: _39  and  _40
REMARK   18  A    between atoms: _39  and  _42
REMARK   19  A    between atoms: _42  and  _43
REMARK   20  A    between atoms: _46  and  _48
REMARK   21  A    between atoms: _48  and  _49
REMARK   22  A    between atoms: _48  and  _51
REMARK   23  A    between atoms: _52  and  _53
REMARK   24  A    between atoms: _56  and  _58
REMARK   25  A    between atoms: _58  and  _59
REMARK   26  A    between atoms: _61  and  _63
REMARK   27  A    between atoms: _63  and  _64
REMARK   28  A    between atoms: _63  and  _66
REMARK   29  A    between atoms: _70  and  _71
REMARK   30  A    between atoms: _76  and  _78
REMARK   31  A    between atoms: _78  and  _79
REMARK   32  A    between atoms: _78  and  _81
REMARK   33  A    between atoms: _81  and  _82
REMARK   34  A    between atoms: _82  and  _83
REMARK   35  A    between atoms: _86  and  _88
REMARK   36  A    between atoms: _88  and  _89
REMARK   37  A    between atoms: _88  and  _91
REMARK   38  A    between atoms: _91  and  _92
REMARK   39  A    between atoms: _94  and  _96
REMARK   40  A    between atoms: _96  and  _97
REMARK   41  A    between atoms: _96  and  _99
REMARK   42  A    between atoms: _99  and  _100
REMARK   43  A    between atoms: _105  and  _107
REMARK   44  A    between atoms: _107  and  _108
REMARK   45  A    between atoms: _107  and  _110
REMARK   46  A    between atoms: _110  and  _111
REMARK   47  A    between atoms: _111  and  _112
REMARK   48  A    between atoms: _112  and  _113
REMARK   49  A    between atoms: _123  and  _124
REMARK   50  A    between atoms: _129  and  _131
REMARK   51  A    between atoms: _131  and  _132
REMARK   52  A    between atoms: _131  and  _134
REMARK   53  A    between atoms: _134  and  _135
REMARK   54  A    between atoms: _140  and  _141
REMARK   55  A    between atoms: _143  and  _145
REMARK   56  A    between atoms: _145  and  _146
REMARK   57  A    between atoms: _145  and  _148
REMARK   58  A    between atoms: _148  and  _149
REMARK   59  A    between atoms: _154  and  _155
REMARK   60  A    between atoms: _157  and  _159
REMARK   61  A    between atoms: _159  and  _160
REMARK   62  A    between atoms: _159  and  _162
REMARK   63  A    between atoms: _165  and  _167
REMARK   64  A    between atoms: _167  and  _168
REMARK   65  A    between atoms: _167  and  _170
REMARK   66  A    between atoms: _170  and  _171
REMARK   67  A    between atoms: _177  and  _178
REMARK   68  A    between atoms: _183  and  _185
REMARK   69  A    between atoms: _185  and  _186
REMARK   70  A    between atoms: _185  and  _188
REMARK   71  A    between atoms: _188  and  _189
REMARK   72  A    between atoms: _191  and  _193
REMARK   73  A    between atoms: _193  and  _194
REMARK   74  A    between atoms: _193  and  _196
REMARK   75  A    between atoms: _196  and  _197
REMARK   76  A    between atoms: _197  and  _198
REMARK   77  A    between atoms: _201  and  _203
REMARK   78  A    between atoms: _203  and  _204
REMARK   79  A    between atoms: _203  and  _206
REMARK   80  A    between atoms: _206  and  _207
REMARK   81  A    between atoms: _212  and  _213
REMARK   82  A    between atoms: _215  and  _217
REMARK   83  A    between atoms: _217  and  _218
REMARK   84  A    between atoms: _217  and  _220
REMARK   85  A    between atoms: _220  and  _221
REMARK   86  A    between atoms: _226  and  _228
REMARK   87  A    between atoms: _228  and  _229
REMARK   88  A    between atoms: _228  and  _231
REMARK   89  A    between atoms: _231  and  _232
REMARK   90  A    between atoms: _237  and  _239
REMARK   91  A    between atoms: _239  and  _240
REMARK   92  A    between atoms: _239  and  _242
REMARK   93  A    between atoms: _242  and  _243
REMARK   94  A    between atoms: _243  and  _244
REMARK   95  A    between atoms: _246  and  _248
REMARK   96  A    between atoms: _248  and  _249
REMARK   97  A    between atoms: _248  and  _251
REMARK   98  A    between atoms: _251  and  _252
REMARK   99  A    between atoms: _257  and  _258
REMARK  100  A    between atoms: _260  and  _262
REMARK  101  A    between atoms: _262  and  _263
REMARK  102  A    between atoms: _262  and  _265
REMARK  103  A    between atoms: _265  and  _266
REMARK  104  A    between atoms: _269  and  _271
REMARK  105  A    between atoms: _271  and  _272
REMARK  106  A    between atoms: _271  and  _274
REMARK  107  A    between atoms: _274  and  _275
REMARK  108  A    between atoms: _275  and  _492
REMARK  109  A    between atoms: _276  and  _278
REMARK  110  A    between atoms: _278  and  _279
REMARK  111  A    between atoms: _278  and  _281
REMARK  112  A    between atoms: _281  and  _282
REMARK  113  A    between atoms: _285  and  _287
REMARK  114  A    between atoms: _287  and  _288
REMARK  115  A    between atoms: _287  and  _290
REMARK  116  A    between atoms: _290  and  _291
REMARK  117  A    between atoms: _296  and  _297
REMARK  118  A    between atoms: _299  and  _301
REMARK  119  A    between atoms: _301  and  _302
REMARK  120  A    between atoms: _301  and  _304
REMARK  121  A    between atoms: _304  and  _305
REMARK  122  A    between atoms: _310  and  _311
REMARK  123  A    between atoms: _313  and  _315
REMARK  124  A    between atoms: _315  and  _316
REMARK  125  A    between atoms: _315  and  _318
REMARK  126  A    between atoms: _318  and  _319
REMARK  127  A    between atoms: _319  and  _320
REMARK  128  A    between atoms: _323  and  _325
REMARK  129  A    between atoms: _325  and  _326
REMARK  130  A    between atoms: _325  and  _328
REMARK  131  A    between atoms: _328  and  _329
REMARK  132  A    between atoms: _334  and  _335
REMARK  133  A    between atoms: _337  and  _339
REMARK  134  A    between atoms: _339  and  _340
REMARK  135  A    between atoms: _339  and  _342
REMARK  136  A    between atoms: _342  and  _343
REMARK  137  A    between atoms: _348  and  _350
REMARK  138  A    between atoms: _350  and  _351
REMARK  139  A    between atoms: _350  and  _353
REMARK  140  A    between atoms: _353  and  _354
REMARK  141  A    between atoms: _357  and  _359
REMARK  142  A    between atoms: _359  and  _360
REMARK  143  A    between atoms: _359  and  _362
REMARK  144  A    between atoms: _362  and  _363
REMARK  145  A    between atoms: _368  and  _370
REMARK  146  A    between atoms: _370  and  _371
REMARK  147  A    between atoms: _370  and  _373
REMARK  148  A    between atoms: _373  and  _374
REMARK  149  A    between atoms: _384  and  _386
REMARK  150  A    between atoms: _386  and  _387
REMARK  151  A    between atoms: _386  and  _389
REMARK  152  A    between atoms: _389  and  _390
REMARK  153  A    between atoms: _396  and  _398
REMARK  154  A    between atoms: _398  and  _399
REMARK  155  A    between atoms: _398  and  _401
REMARK  156  A    between atoms: _401  and  _402
REMARK  157  A    between atoms: _405  and  _407
REMARK  158  A    between atoms: _407  and  _408
REMARK  159  A    between atoms: _407  and  _410
REMARK  160  A    between atoms: _410  and  _411
REMARK  161  A    between atoms: _414  and  _416
REMARK  162  A    between atoms: _416  and  _417
REMARK  163  A    between atoms: _416  and  _419
REMARK  164  A    between atoms: _419  and  _420
REMARK  165  A    between atoms: _420  and  _421
REMARK  166  A    between atoms: _421  and  _422
REMARK  167  A    between atoms: _431  and  _433
REMARK  168  A    between atoms: _433  and  _434
REMARK  169  A    between atoms: _433  and  _436
REMARK  170  A    between atoms: _436  and  _437
REMARK  171  A    between atoms: _442  and  _444
REMARK  172  A    between atoms: _444  and  _445
REMARK  173  A    between atoms: _444  and  _447
REMARK  174  A    between atoms: _447  and  _448
REMARK  175  A    between atoms: _449  and  _450
REMARK  176  A    between atoms: _459  and  _461
REMARK  177  A    between atoms: _461  and  _462
REMARK  178  A    between atoms: _465  and  _467
REMARK  179  A    between atoms: _467  and  _468
REMARK  180  A    between atoms: _470  and  _472
REMARK  181  A    between atoms: _472  and  _473
REMARK  182  A    between atoms: _472  and  _475
REMARK  183  A    between atoms: _475  and  _476
REMARK  184  A    between atoms: _486  and  _488
REMARK  185  A    between atoms: _488  and  _489
REMARK  186  A    between atoms: _488  and  _491
REMARK  187  A    between atoms: _491  and  _492
REMARK  188  A    between atoms: _493  and  _495
REMARK  189  A    between atoms: _495  and  _496
REMARK  190  A    between atoms: _499  and  _501
REMARK  191  A    between atoms: _501  and  _502
REMARK  192  A    between atoms: _501  and  _504
REMARK  193  A    between atoms: _504  and  _505
REMARK  194  A    between atoms: _508  and  _510
REMARK  195  A    between atoms: _510  and  _511
REMARK  196  A    between atoms: _510  and  _513
REMARK  197  A    between atoms: _513  and  _514
REMARK  198  A    between atoms: _519  and  _520
REMARK  199  A    between atoms: _522  and  _524
REMARK  200  A    between atoms: _524  and  _525
REMARK  201  A    between atoms: _524  and  _527
REMARK  202  A    between atoms: _527  and  _528
REMARK  203  A    between atoms: _530  and  _532
REMARK  204  A    between atoms: _532  and  _533
REMARK  205  A    between atoms: _532  and  _535
REMARK  206  A    between atoms: _535  and  _536
REMARK  207  A    between atoms: _542  and  _544
REMARK  208  A    between atoms: _544  and  _545
REMARK  209  A    between atoms: _544  and  _547
REMARK  210  A    between atoms: _547  and  _548
REMARK  211  A    between atoms: _551  and  _553
REMARK  212  A    between atoms: _553  and  _554
REMARK  213  A    between atoms: _553  and  _556
REMARK  214  A    between atoms: _556  and  _557
REMARK  215  A    between atoms: _559  and  _561
REMARK  216  A    between atoms: _561  and  _562
REMARK  217  A    between atoms: _561  and  _564
REMARK  218  A    between atoms: _564  and  _565
REMARK  219  A    between atoms: _570  and  _572
REMARK  220  A    between atoms: _572  and  _573
REMARK  221  A    between atoms: _572  and  _575
REMARK  222  A    between atoms: _575  and  _576
REMARK  223  A    between atoms: _581  and  _583
REMARK  224  A    between atoms: _583  and  _584
REMARK  225  A    between atoms: _583  and  _586
REMARK  226  A    between atoms: _586  and  _587
REMARK  227  A    between atoms: _590  and  _592
REMARK  228  A    between atoms: _592  and  _593
REMARK  229  A    between atoms: _596  and  _598
REMARK  230  A    between atoms: _598  and  _599
REMARK  231  A    between atoms: _598  and  _601
REMARK  232  A    between atoms: _601  and  _602
REMARK  233  A    between atoms: _607  and  _608
REMARK  234  A    between atoms: _610  and  _612
REMARK  235  A    between atoms: _612  and  _613
REMARK  236  A    between atoms: _612  and  _615
REMARK  237  A    between atoms: _615  and  _616
REMARK  238  A    between atoms: _621  and  _622
REMARK  239  A    between atoms: _624  and  _626
REMARK  240  A    between atoms: _626  and  _627
REMARK  241  A    between atoms: _626  and  _629
REMARK  242  A    between atoms: _632  and  _634
REMARK  243  A    between atoms: _634  and  _635
REMARK  244  A    between atoms: _634  and  _637
REMARK  245  A    between atoms: _637  and  _638
REMARK  246  A    between atoms: _643  and  _645
REMARK  247  A    between atoms: _645  and  _646
REMARK  248  A    between atoms: _649  and  _651
REMARK  249  A    between atoms: _651  and  _652
REMARK  250  A    between atoms: _651  and  _654
REMARK  251  A    between atoms: _654  and  _655
REMARK  252  A    between atoms: _655  and  _656
REMARK  253  A    between atoms: _656  and  _657
REMARK  254  A    between atoms: _666  and  _668
REMARK  255  A    between atoms: _668  and  _669
REMARK  256  A    between atoms: _668  and  _671
REMARK  257  A    between atoms: _671  and  _672
REMARK  258  A    between atoms: _675  and  _677
REMARK  259  A    between atoms: _677  and  _678
REMARK  260  A    between atoms: _677  and  _680
REMARK  261  A    between atoms: _680  and  _681
REMARK  262  A    between atoms: _684  and  _686
REMARK  263  A    between atoms: _686  and  _687
REMARK  264  A    between atoms: _686  and  _689
REMARK  265  A    between atoms: _689  and  _690
REMARK                            x       y       z     vdW  Elec       q    Type
REMARK                         _______ _______ _______ _____ _____    ______ ____
ROOT
ATOM      1  O   HOH     1      10.255  16.028   4.906  0.00  0.00    +0.000 OA
ENDROOT
TORSDOF 0
REMARK  Name = ../refined-set-2016/1b2h/1b2h_pocket.pdb
REMARK  265 active torsions:
REMARK  status: ('A' for Active; 'I' for Inactive)
REMARK    1  A    between atoms: _1  and  _3
REMARK    2  A    between atoms: _3  and  _4
REMARK    3  A    between atoms: _3  and  _6
REMARK    4  A    between atoms: _6  and  _7
REMARK    5  A    between atoms: _12  and  _14
REMARK    6  A    between atoms: _14  and  _15
REMARK    7  A    between atoms: _17  and  _19
REMARK    8  A    between atoms: _19  and  _20
REMARK    9  A    between atoms: _19  and  _22
REMARK   10  A    between atoms: _22  and  _23
REMARK   11  A    between atoms: _25  and  _27
REMARK   12  A    between atoms: _27  and  _28
REMARK   13  A    between atoms: _27  and  _30
REMARK   14  A    between atoms: _30  and  _31
REMARK   15  A    between atoms: _31  and  _32
REMARK   16  A    between atoms: _37  and  _39
REMARK   17  A    between atoms: _39  and  _40
REMARK   18  A    between atoms: _39  and  _42
REMARK   19  A    between atoms: _42  and  _43
REMARK   20  A    between atoms: _46  and  _48
REMARK   21  A    between atoms: _48  and  _49
REMARK   22  A    between atoms: _48  and  _51
REMARK   23  A    between atoms: _52  and  _53
REMARK   24  A    between atoms: _56  and  _58
REMARK   25  A    between atoms: _58  and  _59
REMARK   26  A    between atoms: _61  and  _63
REMARK   27  A    between atoms: _63  and  _64
REMARK   28  A    between atoms: _63  and  _66
REMARK   29  A    between atoms: _70  and  _71
REMARK   30  A    between atoms: _76  and  _78
REMARK   31  A    between atoms: _78  and  _79
REMARK   32  A    between atoms: _78  and  _81
REMARK   33  A    between atoms: _81  and  _82
REMARK   34  A    between atoms: _82  and  _83
REMARK   35  A    between atoms: _86  and  _88
REMARK   36  A    between atoms: _88  and  _89
REMARK   37  A    between atoms: _88  and  _91
REMARK   38  A    between atoms: _91  and  _92
REMARK   39  A    between atoms: _94  and  _96
REMARK   40  A    between atoms: _96  and  _97
REMARK   41  A    between atoms: _96  and  _99
REMARK   42  A    between atoms: _99  and  _100
REMARK   43  A    between atoms: _105  and  _107
REMARK   44  A    between atoms: _107  and  _108
REMARK   45  A    between atoms: _107  and  _110
REMARK   46  A    between atoms: _110  and  _111
REMARK   47  A    between atoms: _111  and  _112
REMARK   48  A    between atoms: _112  and  _113
REMARK   49  A    between atoms: _123  and  _124
REMARK   50  A    between atoms: _129  and  _131
REMARK   51  A    between atoms: _131  and  _132
REMARK   52  A    between atoms: _131  and  _134
REMARK   53  A    between atoms: _134  and  _135
REMARK   54  A    between atoms: _140  and  _141
REMARK   55  A    between atoms: _143  and  _145
REMARK   56  A    between atoms: _145  and  _146
REMARK   57  A    between atoms: _145  and  _148
REMARK   58  A    between atoms: _148  and  _149
REMARK   59  A    between atoms: _154  and  _155
REMARK   60  A    between atoms: _157  and  _159
REMARK   61  A    between atoms: _159  and  _160
REMARK   62  A    between atoms: _159  and  _162
REMARK   63  A    between atoms: _165  and  _167
REMARK   64  A    between atoms: _167  and  _168
REMARK   65  A    between atoms: _167  and  _170
REMARK   66  A    between atoms: _170  and  _171
REMARK   67  A    between atoms: _177  and  _178
REMARK   68  A    between atoms: _183  and  _185
REMARK   69  A    between atoms: _185  and  _186
REMARK   70  A    between atoms: _185  and  _188
REMARK   71  A    between atoms: _188  and  _189
REMARK   72  A    between atoms: _191  and  _193
REMARK   73  A    between atoms: _193  and  _194
REMARK   74  A    between atoms: _193  and  _196
REMARK   75  A    between atoms: _196  and  _197
REMARK   76  A    between atoms: _197  and  _198
REMARK   77  A    between atoms: _201  and  _203
REMARK   78  A    between atoms: _203  and  _204
REMARK   79  A    between atoms: _203  and  _206
REMARK   80  A    between atoms: _206  and  _207
REMARK   81  A    between atoms: _212  and  _213
REMARK   82  A    between atoms: _215  and  _217
REMARK   83  A    between atoms: _217  and  _218
REMARK   84  A    between atoms: _217  and  _220
REMARK   85  A    between atoms: _220  and  _221
REMARK   86  A    between atoms: _226  and  _228
REMARK   87  A    between atoms: _228  and  _229
REMARK   88  A    between atoms: _228  and  _231
REMARK   89  A    between atoms: _231  and  _232
REMARK   90  A    between atoms: _237  and  _239
REMARK   91  A    between atoms: _239  and  _240
REMARK   92  A    between atoms: _239  and  _242
REMARK   93  A    between atoms: _242  and  _243
REMARK   94  A    between atoms: _243  and  _244
REMARK   95  A    between atoms: _246  and  _248
REMARK   96  A    between atoms: _248  and  _249
REMARK   97  A    between atoms: _248  and  _251
REMARK   98  A    between atoms: _251  and  _252
REMARK   99  A    between atoms: _257  and  _258
REMARK  100  A    between atoms: _260  and  _262
REMARK  101  A    between atoms: _262  and  _263
REMARK  102  A    between atoms: _262  and  _265
REMARK  103  A    between atoms: _265  and  _266
REMARK  104  A    between atoms: _269  and  _271
REMARK  105  A    between atoms: _271  and  _272
REMARK  106  A    between atoms: _271  and  _274
REMARK  107  A    between atoms: _274  and  _275
REMARK  108  A    between atoms: _275  and  _492
REMARK  109  A    between atoms: _276  and  _278
REMARK  110  A    between atoms: _278  and  _279
REMARK  111  A    between atoms: _278  and  _281
REMARK  112  A    between atoms: _281  and  _282
REMARK  113  A    between atoms: _285  and  _287
REMARK  114  A    between atoms: _287  and  _288
REMARK  115  A    between atoms: _287  and  _290
REMARK  116  A    between atoms: _290  and  _291
REMARK  117  A    between atoms: _296  and  _297
REMARK  118  A    between atoms: _299  and  _301
REMARK  119  A    between atoms: _301  and  _302
REMARK  120  A    between atoms: _301  and  _304
REMARK  121  A    between atoms: _304  and  _305
REMARK  122  A    between atoms: _310  and  _311
REMARK  123  A    between atoms: _313  and  _315
REMARK  124  A    between atoms: _315  and  _316
REMARK  125  A    between atoms: _315  and  _318
REMARK  126  A    between atoms: _318  and  _319
REMARK  127  A    between atoms: _319  and  _320
REMARK  128  A    between atoms: _323  and  _325
REMARK  129  A    between atoms: _325  and  _326
REMARK  130  A    between atoms: _325  and  _328
REMARK  131  A    between atoms: _328  and  _329
REMARK  132  A    between atoms: _334  and  _335
REMARK  133  A    between atoms: _337  and  _339
REMARK  134  A    between atoms: _339  and  _340
REMARK  135  A    between atoms: _339  and  _342
REMARK  136  A    between atoms: _342  and  _343
REMARK  137  A    between atoms: _348  and  _350
REMARK  138  A    between atoms: _350  and  _351
REMARK  139  A    between atoms: _350  and  _353
REMARK  140  A    between atoms: _353  and  _354
REMARK  141  A    between atoms: _357  and  _359
REMARK  142  A    between atoms: _359  and  _360
REMARK  143  A    between atoms: _359  and  _362
REMARK  144  A    between atoms: _362  and  _363
REMARK  145  A    between atoms: _368  and  _370
REMARK  146  A    between atoms: _370  and  _371
REMARK  147  A    between atoms: _370  and  _373
REMARK  148  A    between atoms: _373  and  _374
REMARK  149  A    between atoms: _384  and  _386
REMARK  150  A    between atoms: _386  and  _387
REMARK  151  A    between atoms: _386  and  _389
REMARK  152  A    between atoms: _389  and  _390
REMARK  153  A    between atoms: _396  and  _398
REMARK  154  A    between atoms: _398  and  _399
REMARK  155  A    between atoms: _398  and  _401
REMARK  156  A    between atoms: _401  and  _402
REMARK  157  A    between atoms: _405  and  _407
REMARK  158  A    between atoms: _407  and  _408
REMARK  159  A    between atoms: _407  and  _410
REMARK  160  A    between atoms: _410  and  _411
REMARK  161  A    between atoms: _414  and  _416
REMARK  162  A    between atoms: _416  and  _417
REMARK  163  A    between atoms: _416  and  _419
REMARK  164  A    between atoms: _419  and  _420
REMARK  165  A    between atoms: _420  and  _421
REMARK  166  A    between atoms: _421  and  _422
REMARK  167  A    between atoms: _431  and  _433
REMARK  168  A    between atoms: _433  and  _434
REMARK  169  A    between atoms: _433  and  _436
REMARK  170  A    between atoms: _436  and  _437
REMARK  171  A    between atoms: _442  and  _444
REMARK  172  A    between atoms: _444  and  _445
REMARK  173  A    between atoms: _444  and  _447
REMARK  174  A    between atoms: _447  and  _448
REMARK  175  A    between atoms: _449  and  _450
REMARK  176  A    between atoms: _459  and  _461
REMARK  177  A    between atoms: _461  and  _462
REMARK  178  A    between atoms: _465  and  _467
REMARK  179  A    between atoms: _467  and  _468
REMARK  180  A    between atoms: _470  and  _472
REMARK  181  A    between atoms: _472  and  _473
REMARK  182  A    between atoms: _472  and  _475
REMARK  183  A    between atoms: _475  and  _476
REMARK  184  A    between atoms: _486  and  _488
REMARK  185  A    between atoms: _488  and  _489
REMARK  186  A    between atoms: _488  and  _491
REMARK  187  A    between atoms: _491  and  _492
REMARK  188  A    between atoms: _493  and  _495
REMARK  189  A    between atoms: _495  and  _496
REMARK  190  A    between atoms: _499  and  _501
REMARK  191  A    between atoms: _501  and  _502
REMARK  192  A    between atoms: _501  and  _504
REMARK  193  A    between atoms: _504  and  _505
REMARK  194  A    between atoms: _508  and  _510
REMARK  195  A    between atoms: _510  and  _511
REMARK  196  A    between atoms: _510  and  _513
REMARK  197  A    between atoms: _513  and  _514
REMARK  198  A    between atoms: _519  and  _520
REMARK  199  A    between atoms: _522  and  _524
REMARK  200  A    between atoms: _524  and  _525
REMARK  201  A    between atoms: _524  and  _527
REMARK  202  A    between atoms: _527  and  _528
REMARK  203  A    between atoms: _530  and  _532
REMARK  204  A    between atoms: _532  and  _533
REMARK  205  A    between atoms: _532  and  _535
REMARK  206  A    between atoms: _535  and  _536
REMARK  207  A    between atoms: _542  and  _544
REMARK  208  A    between atoms: _544  and  _545
REMARK  209  A    between atoms: _544  and  _547
REMARK  210  A    between atoms: _547  and  _548
REMARK  211  A    between atoms: _551  and  _553
REMARK  212  A    between atoms: _553  and  _554
REMARK  213  A    between atoms: _553  and  _556
REMARK  214  A    between atoms: _556  and  _557
REMARK  215  A    between atoms: _559  and  _561
REMARK  216  A    between atoms: _561  and  _562
REMARK  217  A    between atoms: _561  and  _564
REMARK  218  A    between atoms: _564  and  _565
REMARK  219  A    between atoms: _570  and  _572
REMARK  220  A    between atoms: _572  and  _573
REMARK  221  A    between atoms: _572  and  _575
REMARK  222  A    between atoms: _575  and  _576
REMARK  223  A    between atoms: _581  and  _583
REMARK  224  A    between atoms: _583  and  _584
REMARK  225  A    between atoms: _583  and  _586
REMARK  226  A    between atoms: _586  and  _587
REMARK  227  A    between atoms: _590  and  _592
REMARK  228  A    between atoms: _592  and  _593
REMARK  229  A    between atoms: _596  and  _598
REMARK  230  A    between atoms: _598  and  _599
REMARK  231  A    between atoms: _598  and  _601
REMARK  232  A    between atoms: _601  and  _602
REMARK  233  A    between atoms: _607  and  _608
REMARK  234  A    between atoms: _610  and  _612
REMARK  235  A    between atoms: _612  and  _613
REMARK  236  A    between atoms: _612  and  _615
REMARK  237  A    between atoms: _615  and  _616
REMARK  238  A    between atoms: _621  and  _622
REMARK  239  A    between atoms: _624  and  _626
REMARK  240  A    between atoms: _626  and  _627
REMARK  241  A    between atoms: _626  and  _629
REMARK  242  A    between atoms: _632  and  _634
REMARK  243  A    between atoms: _634  and  _635
REMARK  244  A    between atoms: _634  and  _637
REMARK  245  A    between atoms: _637  and  _638
REMARK  246  A    between atoms: _643  and  _645
REMARK  247  A    between atoms: _645  and  _646
REMARK  248  A    between atoms: _649  and  _651
REMARK  249  A    between atoms: _651  and  _652
REMARK  250  A    between atoms: _651  and  _654
REMARK  251  A    between atoms: _654  and  _655
REMARK  252  A    between atoms: _655  and  _656
REMARK  253  A    between atoms: _656  and  _657
REMARK  254  A    between atoms: _666  and  _668
REMARK  255  A    between atoms: _668  and  _669
REMARK  256  A    between atoms: _668  and  _671
REMARK  257  A    between atoms: _671  and  _672
REMARK  258  A    between atoms: _675  and  _677
REMARK  259  A    between atoms: _677  and  _678
REMARK  260  A    between atoms: _677  and  _680
REMARK  261  A    between atoms: _680  and  _681
REMARK  262  A    between atoms: _684  and  _686
REMARK  263  A    between atoms: _686  and  _687
REMARK  264  A    between atoms: _686  and  _689
REMARK  265  A    between atoms: _689  and  _690
REMARK                            x       y       z     vdW  Elec       q    Type
REMARK                         _______ _______ _______ _____ _____    ______ ____
ROOT
ATOM      1  O   HOH     1       8.144  11.443   5.281  0.00  0.00    +0.000 OA
ENDROOT
TORSDOF 0
REMARK  Name = ../refined-set-2016/1b2h/1b2h_pocket.pdb
REMARK  265 active torsions:
REMARK  status: ('A' for Active; 'I' for Inactive)
REMARK    1  A    between atoms: _1  and  _3
REMARK    2  A    between atoms: _3  and  _4
REMARK    3  A    between atoms: _3  and  _6
REMARK    4  A    between atoms: _6  and  _7
REMARK    5  A    between atoms: _12  and  _14
REMARK    6  A    between atoms: _14  and  _15
REMARK    7  A    between atoms: _17  and  _19
REMARK    8  A    between atoms: _19  and  _20
REMARK    9  A    between atoms: _19  and  _22
REMARK   10  A    between atoms: _22  and  _23
REMARK   11  A    between atoms: _25  and  _27
REMARK   12  A    between atoms: _27  and  _28
REMARK   13  A    between atoms: _27  and  _30
REMARK   14  A    between atoms: _30  and  _31
REMARK   15  A    between atoms: _31  and  _32
REMARK   16  A    between atoms: _37  and  _39
REMARK   17  A    between atoms: _39  and  _40
REMARK   18  A    between atoms: _39  and  _42
REMARK   19  A    between atoms: _42  and  _43
REMARK   20  A    between atoms: _46  and  _48
REMARK   21  A    between atoms: _48  and  _49
REMARK   22  A    between atoms: _48  and  _51
REMARK   23  A    between atoms: _52  and  _53
REMARK   24  A    between atoms: _56  and  _58
REMARK   25  A    between atoms: _58  and  _59
REMARK   26  A    between atoms: _61  and  _63
REMARK   27  A    between atoms: _63  and  _64
REMARK   28  A    between atoms: _63  and  _66
REMARK   29  A    between atoms: _70  and  _71
REMARK   30  A    between atoms: _76  and  _78
REMARK   31  A    between atoms: _78  and  _79
REMARK   32  A    between atoms: _78  and  _81
REMARK   33  A    between atoms: _81  and  _82
REMARK   34  A    between atoms: _82  and  _83
REMARK   35  A    between atoms: _86  and  _88
REMARK   36  A    between atoms: _88  and  _89
REMARK   37  A    between atoms: _88  and  _91
REMARK   38  A    between atoms: _91  and  _92
REMARK   39  A    between atoms: _94  and  _96
REMARK   40  A    between atoms: _96  and  _97
REMARK   41  A    between atoms: _96  and  _99
REMARK   42  A    between atoms: _99  and  _100
REMARK   43  A    between atoms: _105  and  _107
REMARK   44  A    between atoms: _107  and  _108
REMARK   45  A    between atoms: _107  and  _110
REMARK   46  A    between atoms: _110  and  _111
REMARK   47  A    between atoms: _111  and  _112
REMARK   48  A    between atoms: _112  and  _113
REMARK   49  A    between atoms: _123  and  _124
REMARK   50  A    between atoms: _129  and  _131
REMARK   51  A    between atoms: _131  and  _132
REMARK   52  A    between atoms: _131  and  _134
REMARK   53  A    between atoms: _134  and  _135
REMARK   54  A    between atoms: _140  and  _141
REMARK   55  A    between atoms: _143  and  _145
REMARK   56  A    between atoms: _145  and  _146
REMARK   57  A    between atoms: _145  and  _148
REMARK   58  A    between atoms: _148  and  _149
REMARK   59  A    between atoms: _154  and  _155
REMARK   60  A    between atoms: _157  and  _159
REMARK   61  A    between atoms: _159  and  _160
REMARK   62  A    between atoms: _159  and  _162
REMARK   63  A    between atoms: _165  and  _167
REMARK   64  A    between atoms: _167  and  _168
REMARK   65  A    between atoms: _167  and  _170
REMARK   66  A    between atoms: _170  and  _171
REMARK   67  A    between atoms: _177  and  _178
REMARK   68  A    between atoms: _183  and  _185
REMARK   69  A    between atoms: _185  and  _186
REMARK   70  A    between atoms: _185  and  _188
REMARK   71  A    between atoms: _188  and  _189
REMARK   72  A    between atoms: _191  and  _193
REMARK   73  A    between atoms: _193  and  _194
REMARK   74  A    between atoms: _193  and  _196
REMARK   75  A    between atoms: _196  and  _197
REMARK   76  A    between atoms: _197  and  _198
REMARK   77  A    between atoms: _201  and  _203
REMARK   78  A    between atoms: _203  and  _204
REMARK   79  A    between atoms: _203  and  _206
REMARK   80  A    between atoms: _206  and  _207
REMARK   81  A    between atoms: _212  and  _213
REMARK   82  A    between atoms: _215  and  _217
REMARK   83  A    between atoms: _217  and  _218
REMARK   84  A    between atoms: _217  and  _220
REMARK   85  A    between atoms: _220  and  _221
REMARK   86  A    between atoms: _226  and  _228
REMARK   87  A    between atoms: _228  and  _229
REMARK   88  A    between atoms: _228  and  _231
REMARK   89  A    between atoms: _231  and  _232
REMARK   90  A    between atoms: _237  and  _239
REMARK   91  A    between atoms: _239  and  _240
REMARK   92  A    between atoms: _239  and  _242
REMARK   93  A    between atoms: _242  and  _243
REMARK   94  A    between atoms: _243  and  _244
REMARK   95  A    between atoms: _246  and  _248
REMARK   96  A    between atoms: _248  and  _249
REMARK   97  A    between atoms: _248  and  _251
REMARK   98  A    between atoms: _251  and  _252
REMARK   99  A    between atoms: _257  and  _258
REMARK  100  A    between atoms: _260  and  _262
REMARK  101  A    between atoms: _262  and  _263
REMARK  102  A    between atoms: _262  and  _265
REMARK  103  A    between atoms: _265  and  _266
REMARK  104  A    between atoms: _269  and  _271
REMARK  105  A    between atoms: _271  and  _272
REMARK  106  A    between atoms: _271  and  _274
REMARK  107  A    between atoms: _274  and  _275
REMARK  108  A    between atoms: _275  and  _492
REMARK  109  A    between atoms: _276  and  _278
REMARK  110  A    between atoms: _278  and  _279
REMARK  111  A    between atoms: _278  and  _281
REMARK  112  A    between atoms: _281  and  _282
REMARK  113  A    between atoms: _285  and  _287
REMARK  114  A    between atoms: _287  and  _288
REMARK  115  A    between atoms: _287  and  _290
REMARK  116  A    between atoms: _290  and  _291
REMARK  117  A    between atoms: _296  and  _297
REMARK  118  A    between atoms: _299  and  _301
REMARK  119  A    between atoms: _301  and  _302
REMARK  120  A    between atoms: _301  and  _304
REMARK  121  A    between atoms: _304  and  _305
REMARK  122  A    between atoms: _310  and  _311
REMARK  123  A    between atoms: _313  and  _315
REMARK  124  A    between atoms: _315  and  _316
REMARK  125  A    between atoms: _315  and  _318
REMARK  126  A    between atoms: _318  and  _319
REMARK  127  A    between atoms: _319  and  _320
REMARK  128  A    between atoms: _323  and  _325
REMARK  129  A    between atoms: _325  and  _326
REMARK  130  A    between atoms: _325  and  _328
REMARK  131  A    between atoms: _328  and  _329
REMARK  132  A    between atoms: _334  and  _335
REMARK  133  A    between atoms: _337  and  _339
REMARK  134  A    between atoms: _339  and  _340
REMARK  135  A    between atoms: _339  and  _342
REMARK  136  A    between atoms: _342  and  _343
REMARK  137  A    between atoms: _348  and  _350
REMARK  138  A    between atoms: _350  and  _351
REMARK  139  A    between atoms: _350  and  _353
REMARK  140  A    between atoms: _353  and  _354
REMARK  141  A    between atoms: _357  and  _359
REMARK  142  A    between atoms: _359  and  _360
REMARK  143  A    between atoms: _359  and  _362
REMARK  144  A    between atoms: _362  and  _363
REMARK  145  A    between atoms: _368  and  _370
REMARK  146  A    between atoms: _370  and  _371
REMARK  147  A    between atoms: _370  and  _373
REMARK  148  A    between atoms: _373  and  _374
REMARK  149  A    between atoms: _384  and  _386
REMARK  150  A    between atoms: _386  and  _387
REMARK  151  A    between atoms: _386  and  _389
REMARK  152  A    between atoms: _389  and  _390
REMARK  153  A    between atoms: _396  and  _398
REMARK  154  A    between atoms: _398  and  _399
REMARK  155  A    between atoms: _398  and  _401
REMARK  156  A    between atoms: _401  and  _402
REMARK  157  A    between atoms: _405  and  _407
REMARK  158  A    between atoms: _407  and  _408
REMARK  159  A    between atoms: _407  and  _410
REMARK  160  A    between atoms: _410  and  _411
REMARK  161  A    between atoms: _414  and  _416
REMARK  162  A    between atoms: _416  and  _417
REMARK  163  A    between atoms: _416  and  _419
REMARK  164  A    between atoms: _419  and  _420
REMARK  165  A    between atoms: _420  and  _421
REMARK  166  A    between atoms: _421  and  _422
REMARK  167  A    between atoms: _431  and  _433
REMARK  168  A    between atoms: _433  and  _434
REMARK  169  A    between atoms: _433  and  _436
REMARK  170  A    between atoms: _436  and  _437
REMARK  171  A    between atoms: _442  and  _444
REMARK  172  A    between atoms: _444  and  _445
REMARK  173  A    between atoms: _444  and  _447
REMARK  174  A    between atoms: _447  and  _448
REMARK  175  A    between atoms: _449  and  _450
REMARK  176  A    between atoms: _459  and  _461
REMARK  177  A    between atoms: _461  and  _462
REMARK  178  A    between atoms: _465  and  _467
REMARK  179  A    between atoms: _467  and  _468
REMARK  180  A    between atoms: _470  and  _472
REMARK  181  A    between atoms: _472  and  _473
REMARK  182  A    between atoms: _472  and  _475
REMARK  183  A    between atoms: _475  and  _476
REMARK  184  A    between atoms: _486  and  _488
REMARK  185  A    between atoms: _488  and  _489
REMARK  186  A    between atoms: _488  and  _491
REMARK  187  A    between atoms: _491  and  _492
REMARK  188  A    between atoms: _493  and  _495
REMARK  189  A    between atoms: _495  and  _496
REMARK  190  A    between atoms: _499  and  _501
REMARK  191  A    between atoms: _501  and  _502
REMARK  192  A    between atoms: _501  and  _504
REMARK  193  A    between atoms: _504  and  _505
REMARK  194  A    between atoms: _508  and  _510
REMARK  195  A    between atoms: _510  and  _511
REMARK  196  A    between atoms: _510  and  _513
REMARK  197  A    between atoms: _513  and  _514
REMARK  198  A    between atoms: _519  and  _520
REMARK  199  A    between atoms: _522  and  _524
REMARK  200  A    between atoms: _524  and  _525
REMARK  201  A    between atoms: _524  and  _527
REMARK  202  A    between atoms: _527  and  _528
REMARK  203  A    between atoms: _530  and  _532
REMARK  204  A    between atoms: _532  and  _533
REMARK  205  A    between atoms: _532  and  _535
REMARK  206  A    between atoms: _535  and  _536
REMARK  207  A    between atoms: _542  and  _544
REMARK  208  A    between atoms: _544  and  _545
REMARK  209  A    between atoms: _544  and  _547
REMARK  210  A    between atoms: _547  and  _548
REMARK  211  A    between atoms: _551  and  _553
REMARK  212  A    between atoms: _553  and  _554
REMARK  213  A    between atoms: _553  and  _556
REMARK  214  A    between atoms: _556  and  _557
REMARK  215  A    between atoms: _559  and  _561
REMARK  216  A    between atoms: _561  and  _562
REMARK  217  A    between atoms: _561  and  _564
REMARK  218  A    between atoms: _564  and  _565
REMARK  219  A    between atoms: _570  and  _572
REMARK  220  A    between atoms: _572  and  _573
REMARK  221  A    between atoms: _572  and  _575
REMARK  222  A    between atoms: _575  and  _576
REMARK  223  A    between atoms: _581  and  _583
REMARK  224  A    between atoms: _583  and  _584
REMARK  225  A    between atoms: _583  and  _586
REMARK  226  A    between atoms: _586  and  _587
REMARK  227  A    between atoms: _590  and  _592
REMARK  228  A    between atoms: _592  and  _593
REMARK  229  A    between atoms: _596  and  _598
REMARK  230  A    between atoms: _598  and  _599
REMARK  231  A    between atoms: _598  and  _601
REMARK  232  A    between atoms: _601  and  _602
REMARK  233  A    between atoms: _607  and  _608
REMARK  234  A    between atoms: _610  and  _612
REMARK  235  A    between atoms: _612  and  _613
REMARK  236  A    between atoms: _612  and  _615
REMARK  237  A    between atoms: _615  and  _616
REMARK  238  A    between atoms: _621  and  _622
REMARK  239  A    between atoms: _624  and  _626
REMARK  240  A    between atoms: _626  and  _627
REMARK  241  A    between atoms: _626  and  _629
REMARK  242  A    between atoms: _632  and  _634
REMARK  243  A    between atoms: _634  and  _635
REMARK  244  A    between atoms: _634  and  _637
REMARK  245  A    between atoms: _637  and  _638
REMARK  246  A    between atoms: _643  and  _645
REMARK  247  A    between atoms: _645  and  _646
REMARK  248  A    between atoms: _649  and  _651
REMARK  249  A    between atoms: _651  and  _652
REMARK  250  A    between atoms: _651  and  _654
REMARK  251  A    between atoms: _654  and  _655
REMARK  252  A    between atoms: _655  and  _656
REMARK  253  A    between atoms: _656  and  _657
REMARK  254  A    between atoms: _666  and  _668
REMARK  255  A    between atoms: _668  and  _669
REMARK  256  A    between atoms: _668  and  _671
REMARK  257  A    between atoms: _671  and  _672
REMARK  258  A    between atoms: _675  and  _677
REMARK  259  A    between atoms: _677  and  _678
REMARK  260  A    between atoms: _677  and  _680
REMARK  261  A    between atoms: _680  and  _681
REMARK  262  A    between atoms: _684  and  _686
REMARK  263  A    between atoms: _686  and  _687
REMARK  264  A    between atoms: _686  and  _689
REMARK  265  A    between atoms: _689  and  _690
REMARK                            x       y       z     vdW  Elec       q    Type
REMARK                         _______ _______ _______ _____ _____    ______ ____
ROOT
ATOM      1  O   HOH     1       7.797  15.710   6.870  0.00  0.00    +0.000 OA
ENDROOT
TORSDOF 0
REMARK  Name = ../refined-set-2016/1b2h/1b2h_pocket.pdb
REMARK  265 active torsions:
REMARK  status: ('A' for Active; 'I' for Inactive)
REMARK    1  A    between atoms: _1  and  _3
REMARK    2  A    between atoms: _3  and  _4
REMARK    3  A    between atoms: _3  and  _6
REMARK    4  A    between atoms: _6  and  _7
REMARK    5  A    between atoms: _12  and  _14
REMARK    6  A    between atoms: _14  and  _15
REMARK    7  A    between atoms: _17  and  _19
REMARK    8  A    between atoms: _19  and  _20
REMARK    9  A    between atoms: _19  and  _22
REMARK   10  A    between atoms: _22  and  _23
REMARK   11  A    between atoms: _25  and  _27
REMARK   12  A    between atoms: _27  and  _28
REMARK   13  A    between atoms: _27  and  _30
REMARK   14  A    between atoms: _30  and  _31
REMARK   15  A    between atoms: _31  and  _32
REMARK   16  A    between atoms: _37  and  _39
REMARK   17  A    between atoms: _39  and  _40
REMARK   18  A    between atoms: _39  and  _42
REMARK   19  A    between atoms: _42  and  _43
REMARK   20  A    between atoms: _46  and  _48
REMARK   21  A    between atoms: _48  and  _49
REMARK   22  A    between atoms: _48  and  _51
REMARK   23  A    between atoms: _52  and  _53
REMARK   24  A    between atoms: _56  and  _58
REMARK   25  A    between atoms: _58  and  _59
REMARK   26  A    between atoms: _61  and  _63
REMARK   27  A    between atoms: _63  and  _64
REMARK   28  A    between atoms: _63  and  _66
REMARK   29  A    between atoms: _70  and  _71
REMARK   30  A    between atoms: _76  and  _78
REMARK   31  A    between atoms: _78  and  _79
REMARK   32  A    between atoms: _78  and  _81
REMARK   33  A    between atoms: _81  and  _82
REMARK   34  A    between atoms: _82  and  _83
REMARK   35  A    between atoms: _86  and  _88
REMARK   36  A    between atoms: _88  and  _89
REMARK   37  A    between atoms: _88  and  _91
REMARK   38  A    between atoms: _91  and  _92
REMARK   39  A    between atoms: _94  and  _96
REMARK   40  A    between atoms: _96  and  _97
REMARK   41  A    between atoms: _96  and  _99
REMARK   42  A    between atoms: _99  and  _100
REMARK   43  A    between atoms: _105  and  _107
REMARK   44  A    between atoms: _107  and  _108
REMARK   45  A    between atoms: _107  and  _110
REMARK   46  A    between atoms: _110  and  _111
REMARK   47  A    between atoms: _111  and  _112
REMARK   48  A    between atoms: _112  and  _113
REMARK   49  A    between atoms: _123  and  _124
REMARK   50  A    between atoms: _129  and  _131
REMARK   51  A    between atoms: _131  and  _132
REMARK   52  A    between atoms: _131  and  _134
REMARK   53  A    between atoms: _134  and  _135
REMARK   54  A    between atoms: _140  and  _141
REMARK   55  A    between atoms: _143  and  _145
REMARK   56  A    between atoms: _145  and  _146
REMARK   57  A    between atoms: _145  and  _148
REMARK   58  A    between atoms: _148  and  _149
REMARK   59  A    between atoms: _154  and  _155
REMARK   60  A    between atoms: _157  and  _159
REMARK   61  A    between atoms: _159  and  _160
REMARK   62  A    between atoms: _159  and  _162
REMARK   63  A    between atoms: _165  and  _167
REMARK   64  A    between atoms: _167  and  _168
REMARK   65  A    between atoms: _167  and  _170
REMARK   66  A    between atoms: _170  and  _171
REMARK   67  A    between atoms: _177  and  _178
REMARK   68  A    between atoms: _183  and  _185
REMARK   69  A    between atoms: _185  and  _186
REMARK   70  A    between atoms: _185  and  _188
REMARK   71  A    between atoms: _188  and  _189
REMARK   72  A    between atoms: _191  and  _193
REMARK   73  A    between atoms: _193  and  _194
REMARK   74  A    between atoms: _193  and  _196
REMARK   75  A    between atoms: _196  and  _197
REMARK   76  A    between atoms: _197  and  _198
REMARK   77  A    between atoms: _201  and  _203
REMARK   78  A    between atoms: _203  and  _204
REMARK   79  A    between atoms: _203  and  _206
REMARK   80  A    between atoms: _206  and  _207
REMARK   81  A    between atoms: _212  and  _213
REMARK   82  A    between atoms: _215  and  _217
REMARK   83  A    between atoms: _217  and  _218
REMARK   84  A    between atoms: _217  and  _220
REMARK   85  A    between atoms: _220  and  _221
REMARK   86  A    between atoms: _226  and  _228
REMARK   87  A    between atoms: _228  and  _229
REMARK   88  A    between atoms: _228  and  _231
REMARK   89  A    between atoms: _231  and  _232
REMARK   90  A    between atoms: _237  and  _239
REMARK   91  A    between atoms: _239  and  _240
REMARK   92  A    between atoms: _239  and  _242
REMARK   93  A    between atoms: _242  and  _243
REMARK   94  A    between atoms: _243  and  _244
REMARK   95  A    between atoms: _246  and  _248
REMARK   96  A    between atoms: _248  and  _249
REMARK   97  A    between atoms: _248  and  _251
REMARK   98  A    between atoms: _251  and  _252
REMARK   99  A    between atoms: _257  and  _258
REMARK  100  A    between atoms: _260  and  _262
REMARK  101  A    between atoms: _262  and  _263
REMARK  102  A    between atoms: _262  and  _265
REMARK  103  A    between atoms: _265  and  _266
REMARK  104  A    between atoms: _269  and  _271
REMARK  105  A    between atoms: _271  and  _272
REMARK  106  A    between atoms: _271  and  _274
REMARK  107  A    between atoms: _274  and  _275
REMARK  108  A    between atoms: _275  and  _492
REMARK  109  A    between atoms: _276  and  _278
REMARK  110  A    between atoms: _278  and  _279
REMARK  111  A    between atoms: _278  and  _281
REMARK  112  A    between atoms: _281  and  _282
REMARK  113  A    between atoms: _285  and  _287
REMARK  114  A    between atoms: _287  and  _288
REMARK  115  A    between atoms: _287  and  _290
REMARK  116  A    between atoms: _290  and  _291
REMARK  117  A    between atoms: _296  and  _297
REMARK  118  A    between atoms: _299  and  _301
REMARK  119  A    between atoms: _301  and  _302
REMARK  120  A    between atoms: _301  and  _304
REMARK  121  A    between atoms: _304  and  _305
REMARK  122  A    between atoms: _310  and  _311
REMARK  123  A    between atoms: _313  and  _315
REMARK  124  A    between atoms: _315  and  _316
REMARK  125  A    between atoms: _315  and  _318
REMARK  126  A    between atoms: _318  and  _319
REMARK  127  A    between atoms: _319  and  _320
REMARK  128  A    between atoms: _323  and  _325
REMARK  129  A    between atoms: _325  and  _326
REMARK  130  A    between atoms: _325  and  _328
REMARK  131  A    between atoms: _328  and  _329
REMARK  132  A    between atoms: _334  and  _335
REMARK  133  A    between atoms: _337  and  _339
REMARK  134  A    between atoms: _339  and  _340
REMARK  135  A    between atoms: _339  and  _342
REMARK  136  A    between atoms: _342  and  _343
REMARK  137  A    between atoms: _348  and  _350
REMARK  138  A    between atoms: _350  and  _351
REMARK  139  A    between atoms: _350  and  _353
REMARK  140  A    between atoms: _353  and  _354
REMARK  141  A    between atoms: _357  and  _359
REMARK  142  A    between atoms: _359  and  _360
REMARK  143  A    between atoms: _359  and  _362
REMARK  144  A    between atoms: _362  and  _363
REMARK  145  A    between atoms: _368  and  _370
REMARK  146  A    between atoms: _370  and  _371
REMARK  147  A    between atoms: _370  and  _373
REMARK  148  A    between atoms: _373  and  _374
REMARK  149  A    between atoms: _384  and  _386
REMARK  150  A    between atoms: _386  and  _387
REMARK  151  A    between atoms: _386  and  _389
REMARK  152  A    between atoms: _389  and  _390
REMARK  153  A    between atoms: _396  and  _398
REMARK  154  A    between atoms: _398  and  _399
REMARK  155  A    between atoms: _398  and  _401
REMARK  156  A    between atoms: _401  and  _402
REMARK  157  A    between atoms: _405  and  _407
REMARK  158  A    between atoms: _407  and  _408
REMARK  159  A    between atoms: _407  and  _410
REMARK  160  A    between atoms: _410  and  _411
REMARK  161  A    between atoms: _414  and  _416
REMARK  162  A    between atoms: _416  and  _417
REMARK  163  A    between atoms: _416  and  _419
REMARK  164  A    between atoms: _419  and  _420
REMARK  165  A    between atoms: _420  and  _421
REMARK  166  A    between atoms: _421  and  _422
REMARK  167  A    between atoms: _431  and  _433
REMARK  168  A    between atoms: _433  and  _434
REMARK  169  A    between atoms: _433  and  _436
REMARK  170  A    between atoms: _436  and  _437
REMARK  171  A    between atoms: _442  and  _444
REMARK  172  A    between atoms: _444  and  _445
REMARK  173  A    between atoms: _444  and  _447
REMARK  174  A    between atoms: _447  and  _448
REMARK  175  A    between atoms: _449  and  _450
REMARK  176  A    between atoms: _459  and  _461
REMARK  177  A    between atoms: _461  and  _462
REMARK  178  A    between atoms: _465  and  _467
REMARK  179  A    between atoms: _467  and  _468
REMARK  180  A    between atoms: _470  and  _472
REMARK  181  A    between atoms: _472  and  _473
REMARK  182  A    between atoms: _472  and  _475
REMARK  183  A    between atoms: _475  and  _476
REMARK  184  A    between atoms: _486  and  _488
REMARK  185  A    between atoms: _488  and  _489
REMARK  186  A    between atoms: _488  and  _491
REMARK  187  A    between atoms: _491  and  _492
REMARK  188  A    between atoms: _493  and  _495
REMARK  189  A    between atoms: _495  and  _496
REMARK  190  A    between atoms: _499  and  _501
REMARK  191  A    between atoms: _501  and  _502
REMARK  192  A    between atoms: _501  and  _504
REMARK  193  A    between atoms: _504  and  _505
REMARK  194  A    between atoms: _508  and  _510
REMARK  195  A    between atoms: _510  and  _511
REMARK  196  A    between atoms: _510  and  _513
REMARK  197  A    between atoms: _513  and  _514
REMARK  198  A    between atoms: _519  and  _520
REMARK  199  A    between atoms: _522  and  _524
REMARK  200  A    between atoms: _524  and  _525
REMARK  201  A    between atoms: _524  and  _527
REMARK  202  A    between atoms: _527  and  _528
REMARK  203  A    between atoms: _530  and  _532
REMARK  204  A    between atoms: _532  and  _533
REMARK  205  A    between atoms: _532  and  _535
REMARK  206  A    between atoms: _535  and  _536
REMARK  207  A    between atoms: _542  and  _544
REMARK  208  A    between atoms: _544  and  _545
REMARK  209  A    between atoms: _544  and  _547
REMARK  210  A    between atoms: _547  and  _548
REMARK  211  A    between atoms: _551  and  _553
REMARK  212  A    between atoms: _553  and  _554
REMARK  213  A    between atoms: _553  and  _556
REMARK  214  A    between atoms: _556  and  _557
REMARK  215  A    between atoms: _559  and  _561
REMARK  216  A    between atoms: _561  and  _562
REMARK  217  A    between atoms: _561  and  _564
REMARK  218  A    between atoms: _564  and  _565
REMARK  219  A    between atoms: _570  and  _572
REMARK  220  A    between atoms: _572  and  _573
REMARK  221  A    between atoms: _572  and  _575
REMARK  222  A    between atoms: _575  and  _576
REMARK  223  A    between atoms: _581  and  _583
REMARK  224  A    between atoms: _583  and  _584
REMARK  225  A    between atoms: _583  and  _586
REMARK  226  A    between atoms: _586  and  _587
REMARK  227  A    between atoms: _590  and  _592
REMARK  228  A    between atoms: _592  and  _593
REMARK  229  A    between atoms: _596  and  _598
REMARK  230  A    between atoms: _598  and  _599
REMARK  231  A    between atoms: _598  and  _601
REMARK  232  A    between atoms: _601  and  _602
REMARK  233  A    between atoms: _607  and  _608
REMARK  234  A    between atoms: _610  and  _612
REMARK  235  A    between atoms: _612  and  _613
REMARK  236  A    between atoms: _612  and  _615
REMARK  237  A    between atoms: _615  and  _616
REMARK  238  A    between atoms: _621  and  _622
REMARK  239  A    between atoms: _624  and  _626
REMARK  240  A    between atoms: _626  and  _627
REMARK  241  A    between atoms: _626  and  _629
REMARK  242  A    between atoms: _632  and  _634
REMARK  243  A    between atoms: _634  and  _635
REMARK  244  A    between atoms: _634  and  _637
REMARK  245  A    between atoms: _637  and  _638
REMARK  246  A    between atoms: _643  and  _645
REMARK  247  A    between atoms: _645  and  _646
REMARK  248  A    between atoms: _649  and  _651
REMARK  249  A    between atoms: _651  and  _652
REMARK  250  A    between atoms: _651  and  _654
REMARK  251  A    between atoms: _654  and  _655
REMARK  252  A    between atoms: _655  and  _656
REMARK  253  A    between atoms: _656  and  _657
REMARK  254  A    between atoms: _666  and  _668
REMARK  255  A    between atoms: _668  and  _669
REMARK  256  A    between atoms: _668  and  _671
REMARK  257  A    between atoms: _671  and  _672
REMARK  258  A    between atoms: _675  and  _677
REMARK  259  A    between atoms: _677  and  _678
REMARK  260  A    between atoms: _677  and  _680
REMARK  261  A    between atoms: _680  and  _681
REMARK  262  A    between atoms: _684  and  _686
REMARK  263  A    between atoms: _686  and  _687
REMARK  264  A    between atoms: _686  and  _689
REMARK  265  A    between atoms: _689  and  _690
REMARK                            x       y       z     vdW  Elec       q    Type
REMARK                         _______ _______ _______ _____ _____    ______ ____
ROOT
ATOM      1  O   HOH     1      -0.924  15.360   8.683  0.00  0.00    +0.000 OA
ENDROOT
TORSDOF 0
REMARK  Name = ../refined-set-2016/1b2h/1b2h_pocket.pdb
REMARK  265 active torsions:
REMARK  status: ('A' for Active; 'I' for Inactive)
REMARK    1  A    between atoms: _1  and  _3
REMARK    2  A    between atoms: _3  and  _4
REMARK    3  A    between atoms: _3  and  _6
REMARK    4  A    between atoms: _6  and  _7
REMARK    5  A    between atoms: _12  and  _14
REMARK    6  A    between atoms: _14  and  _15
REMARK    7  A    between atoms: _17  and  _19
REMARK    8  A    between atoms: _19  and  _20
REMARK    9  A    between atoms: _19  and  _22
REMARK   10  A    between atoms: _22  and  _23
REMARK   11  A    between atoms: _25  and  _27
REMARK   12  A    between atoms: _27  and  _28
REMARK   13  A    between atoms: _27  and  _30
REMARK   14  A    between atoms: _30  and  _31
REMARK   15  A    between atoms: _31  and  _32
REMARK   16  A    between atoms: _37  and  _39
REMARK   17  A    between atoms: _39  and  _40
REMARK   18  A    between atoms: _39  and  _42
REMARK   19  A    between atoms: _42  and  _43
REMARK   20  A    between atoms: _46  and  _48
REMARK   21  A    between atoms: _48  and  _49
REMARK   22  A    between atoms: _48  and  _51
REMARK   23  A    between atoms: _52  and  _53
REMARK   24  A    between atoms: _56  and  _58
REMARK   25  A    between atoms: _58  and  _59
REMARK   26  A    between atoms: _61  and  _63
REMARK   27  A    between atoms: _63  and  _64
REMARK   28  A    between atoms: _63  and  _66
REMARK   29  A    between atoms: _70  and  _71
REMARK   30  A    between atoms: _76  and  _78
REMARK   31  A    between atoms: _78  and  _79
REMARK   32  A    between atoms: _78  and  _81
REMARK   33  A    between atoms: _81  and  _82
REMARK   34  A    between atoms: _82  and  _83
REMARK   35  A    between atoms: _86  and  _88
REMARK   36  A    between atoms: _88  and  _89
REMARK   37  A    between atoms: _88  and  _91
REMARK   38  A    between atoms: _91  and  _92
REMARK   39  A    between atoms: _94  and  _96
REMARK   40  A    between atoms: _96  and  _97
REMARK   41  A    between atoms: _96  and  _99
REMARK   42  A    between atoms: _99  and  _100
REMARK   43  A    between atoms: _105  and  _107
REMARK   44  A    between atoms: _107  and  _108
REMARK   45  A    between atoms: _107  and  _110
REMARK   46  A    between atoms: _110  and  _111
REMARK   47  A    between atoms: _111  and  _112
REMARK   48  A    between atoms: _112  and  _113
REMARK   49  A    between atoms: _123  and  _124
REMARK   50  A    between atoms: _129  and  _131
REMARK   51  A    between atoms: _131  and  _132
REMARK   52  A    between atoms: _131  and  _134
REMARK   53  A    between atoms: _134  and  _135
REMARK   54  A    between atoms: _140  and  _141
REMARK   55  A    between atoms: _143  and  _145
REMARK   56  A    between atoms: _145  and  _146
REMARK   57  A    between atoms: _145  and  _148
REMARK   58  A    between atoms: _148  and  _149
REMARK   59  A    between atoms: _154  and  _155
REMARK   60  A    between atoms: _157  and  _159
REMARK   61  A    between atoms: _159  and  _160
REMARK   62  A    between atoms: _159  and  _162
REMARK   63  A    between atoms: _165  and  _167
REMARK   64  A    between atoms: _167  and  _168
REMARK   65  A    between atoms: _167  and  _170
REMARK   66  A    between atoms: _170  and  _171
REMARK   67  A    between atoms: _177  and  _178
REMARK   68  A    between atoms: _183  and  _185
REMARK   69  A    between atoms: _185  and  _186
REMARK   70  A    between atoms: _185  and  _188
REMARK   71  A    between atoms: _188  and  _189
REMARK   72  A    between atoms: _191  and  _193
REMARK   73  A    between atoms: _193  and  _194
REMARK   74  A    between atoms: _193  and  _196
REMARK   75  A    between atoms: _196  and  _197
REMARK   76  A    between atoms: _197  and  _198
REMARK   77  A    between atoms: _201  and  _203
REMARK   78  A    between atoms: _203  and  _204
REMARK   79  A    between atoms: _203  and  _206
REMARK   80  A    between atoms: _206  and  _207
REMARK   81  A    between atoms: _212  and  _213
REMARK   82  A    between atoms: _215  and  _217
REMARK   83  A    between atoms: _217  and  _218
REMARK   84  A    between atoms: _217  and  _220
REMARK   85  A    between atoms: _220  and  _221
REMARK   86  A    between atoms: _226  and  _228
REMARK   87  A    between atoms: _228  and  _229
REMARK   88  A    between atoms: _228  and  _231
REMARK   89  A    between atoms: _231  and  _232
REMARK   90  A    between atoms: _237  and  _239
REMARK   91  A    between atoms: _239  and  _240
REMARK   92  A    between atoms: _239  and  _242
REMARK   93  A    between atoms: _242  and  _243
REMARK   94  A    between atoms: _243  and  _244
REMARK   95  A    between atoms: _246  and  _248
REMARK   96  A    between atoms: _248  and  _249
REMARK   97  A    between atoms: _248  and  _251
REMARK   98  A    between atoms: _251  and  _252
REMARK   99  A    between atoms: _257  and  _258
REMARK  100  A    between atoms: _260  and  _262
REMARK  101  A    between atoms: _262  and  _263
REMARK  102  A    between atoms: _262  and  _265
REMARK  103  A    between atoms: _265  and  _266
REMARK  104  A    between atoms: _269  and  _271
REMARK  105  A    between atoms: _271  and  _272
REMARK  106  A    between atoms: _271  and  _274
REMARK  107  A    between atoms: _274  and  _275
REMARK  108  A    between atoms: _275  and  _492
REMARK  109  A    between atoms: _276  and  _278
REMARK  110  A    between atoms: _278  and  _279
REMARK  111  A    between atoms: _278  and  _281
REMARK  112  A    between atoms: _281  and  _282
REMARK  113  A    between atoms: _285  and  _287
REMARK  114  A    between atoms: _287  and  _288
REMARK  115  A    between atoms: _287  and  _290
REMARK  116  A    between atoms: _290  and  _291
REMARK  117  A    between atoms: _296  and  _297
REMARK  118  A    between atoms: _299  and  _301
REMARK  119  A    between atoms: _301  and  _302
REMARK  120  A    between atoms: _301  and  _304
REMARK  121  A    between atoms: _304  and  _305
REMARK  122  A    between atoms: _310  and  _311
REMARK  123  A    between atoms: _313  and  _315
REMARK  124  A    between atoms: _315  and  _316
REMARK  125  A    between atoms: _315  and  _318
REMARK  126  A    between atoms: _318  and  _319
REMARK  127  A    between atoms: _319  and  _320
REMARK  128  A    between atoms: _323  and  _325
REMARK  129  A    between atoms: _325  and  _326
REMARK  130  A    between atoms: _325  and  _328
REMARK  131  A    between atoms: _328  and  _329
REMARK  132  A    between atoms: _334  and  _335
REMARK  133  A    between atoms: _337  and  _339
REMARK  134  A    between atoms: _339  and  _340
REMARK  135  A    between atoms: _339  and  _342
REMARK  136  A    between atoms: _342  and  _343
REMARK  137  A    between atoms: _348  and  _350
REMARK  138  A    between atoms: _350  and  _351
REMARK  139  A    between atoms: _350  and  _353
REMARK  140  A    between atoms: _353  and  _354
REMARK  141  A    between atoms: _357  and  _359
REMARK  142  A    between atoms: _359  and  _360
REMARK  143  A    between atoms: _359  and  _362
REMARK  144  A    between atoms: _362  and  _363
REMARK  145  A    between atoms: _368  and  _370
REMARK  146  A    between atoms: _370  and  _371
REMARK  147  A    between atoms: _370  and  _373
REMARK  148  A    between atoms: _373  and  _374
REMARK  149  A    between atoms: _384  and  _386
REMARK  150  A    between atoms: _386  and  _387
REMARK  151  A    between atoms: _386  and  _389
REMARK  152  A    between atoms: _389  and  _390
REMARK  153  A    between atoms: _396  and  _398
REMARK  154  A    between atoms: _398  and  _399
REMARK  155  A    between atoms: _398  and  _401
REMARK  156  A    between atoms: _401  and  _402
REMARK  157  A    between atoms: _405  and  _407
REMARK  158  A    between atoms: _407  and  _408
REMARK  159  A    between atoms: _407  and  _410
REMARK  160  A    between atoms: _410  and  _411
REMARK  161  A    between atoms: _414  and  _416
REMARK  162  A    between atoms: _416  and  _417
REMARK  163  A    between atoms: _416  and  _419
REMARK  164  A    between atoms: _419  and  _420
REMARK  165  A    between atoms: _420  and  _421
REMARK  166  A    between atoms: _421  and  _422
REMARK  167  A    between atoms: _431  and  _433
REMARK  168  A    between atoms: _433  and  _434
REMARK  169  A    between atoms: _433  and  _436
REMARK  170  A    between atoms: _436  and  _437
REMARK  171  A    between atoms: _442  and  _444
REMARK  172  A    between atoms: _444  and  _445
REMARK  173  A    between atoms: _444  and  _447
REMARK  174  A    between atoms: _447  and  _448
REMARK  175  A    between atoms: _449  and  _450
REMARK  176  A    between atoms: _459  and  _461
REMARK  177  A    between atoms: _461  and  _462
REMARK  178  A    between atoms: _465  and  _467
REMARK  179  A    between atoms: _467  and  _468
REMARK  180  A    between atoms: _470  and  _472
REMARK  181  A    between atoms: _472  and  _473
REMARK  182  A    between atoms: _472  and  _475
REMARK  183  A    between atoms: _475  and  _476
REMARK  184  A    between atoms: _486  and  _488
REMARK  185  A    between atoms: _488  and  _489
REMARK  186  A    between atoms: _488  and  _491
REMARK  187  A    between atoms: _491  and  _492
REMARK  188  A    between atoms: _493  and  _495
REMARK  189  A    between atoms: _495  and  _496
REMARK  190  A    between atoms: _499  and  _501
REMARK  191  A    between atoms: _501  and  _502
REMARK  192  A    between atoms: _501  and  _504
REMARK  193  A    between atoms: _504  and  _505
REMARK  194  A    between atoms: _508  and  _510
REMARK  195  A    between atoms: _510  and  _511
REMARK  196  A    between atoms: _510  and  _513
REMARK  197  A    between atoms: _513  and  _514
REMARK  198  A    between atoms: _519  and  _520
REMARK  199  A    between atoms: _522  and  _524
REMARK  200  A    between atoms: _524  and  _525
REMARK  201  A    between atoms: _524  and  _527
REMARK  202  A    between atoms: _527  and  _528
REMARK  203  A    between atoms: _530  and  _532
REMARK  204  A    between atoms: _532  and  _533
REMARK  205  A    between atoms: _532  and  _535
REMARK  206  A    between atoms: _535  and  _536
REMARK  207  A    between atoms: _542  and  _544
REMARK  208  A    between atoms: _544  and  _545
REMARK  209  A    between atoms: _544  and  _547
REMARK  210  A    between atoms: _547  and  _548
REMARK  211  A    between atoms: _551  and  _553
REMARK  212  A    between atoms: _553  and  _554
REMARK  213  A    between atoms: _553  and  _556
REMARK  214  A    between atoms: _556  and  _557
REMARK  215  A    between atoms: _559  and  _561
REMARK  216  A    between atoms: _561  and  _562
REMARK  217  A    between atoms: _561  and  _564
REMARK  218  A    between atoms: _564  and  _565
REMARK  219  A    between atoms: _570  and  _572
REMARK  220  A    between atoms: _572  and  _573
REMARK  221  A    between atoms: _572  and  _575
REMARK  222  A    between atoms: _575  and  _576
REMARK  223  A    between atoms: _581  and  _583
REMARK  224  A    between atoms: _583  and  _584
REMARK  225  A    between atoms: _583  and  _586
REMARK  226  A    between atoms: _586  and  _587
REMARK  227  A    between atoms: _590  and  _592
REMARK  228  A    between atoms: _592  and  _593
REMARK  229  A    between atoms: _596  and  _598
REMARK  230  A    between atoms: _598  and  _599
REMARK  231  A    between atoms: _598  and  _601
REMARK  232  A    between atoms: _601  and  _602
REMARK  233  A    between atoms: _607  and  _608
REMARK  234  A    between atoms: _610  and  _612
REMARK  235  A    between atoms: _612  and  _613
REMARK  236  A    between atoms: _612  and  _615
REMARK  237  A    between atoms: _615  and  _616
REMARK  238  A    between atoms: _621  and  _622
REMARK  239  A    between atoms: _624  and  _626
REMARK  240  A    between atoms: _626  and  _627
REMARK  241  A    between atoms: _626  and  _629
REMARK  242  A    between atoms: _632  and  _634
REMARK  243  A    between atoms: _634  and  _635
REMARK  244  A    between atoms: _634  and  _637
REMARK  245  A    between atoms: _637  and  _638
REMARK  246  A    between atoms: _643  and  _645
REMARK  247  A    between atoms: _645  and  _646
REMARK  248  A    between atoms: _649  and  _651
REMARK  249  A    between atoms: _651  and  _652
REMARK  250  A    between atoms: _651  and  _654
REMARK  251  A    between atoms: _654  and  _655
REMARK  252  A    between atoms: _655  and  _656
REMARK  253  A    between atoms: _656  and  _657
REMARK  254  A    between atoms: _666  and  _668
REMARK  255  A    between atoms: _668  and  _669
REMARK  256  A    between atoms: _668  and  _671
REMARK  257  A    between atoms: _671  and  _672
REMARK  258  A    between atoms: _675  and  _677
REMARK  259  A    between atoms: _677  and  _678
REMARK  260  A    between atoms: _677  and  _680
REMARK  261  A    between atoms: _680  and  _681
REMARK  262  A    between atoms: _684  and  _686
REMARK  263  A    between atoms: _686  and  _687
REMARK  264  A    between atoms: _686  and  _689
REMARK  265  A    between atoms: _689  and  _690
REMARK                            x       y       z     vdW  Elec       q    Type
REMARK                         _______ _______ _______ _____ _____    ______ ____
ROOT
ATOM      1  O   HOH     1      -8.010  14.844  13.200  0.00  0.00    +0.000 OA
ENDROOT
TORSDOF 0
REMARK  Name = ../refined-set-2016/1b2h/1b2h_pocket.pdb
REMARK  265 active torsions:
REMARK  status: ('A' for Active; 'I' for Inactive)
REMARK    1  A    between atoms: _1  and  _3
REMARK    2  A    between atoms: _3  and  _4
REMARK    3  A    between atoms: _3  and  _6
REMARK    4  A    between atoms: _6  and  _7
REMARK    5  A    between atoms: _12  and  _14
REMARK    6  A    between atoms: _14  and  _15
REMARK    7  A    between atoms: _17  and  _19
REMARK    8  A    between atoms: _19  and  _20
REMARK    9  A    between atoms: _19  and  _22
REMARK   10  A    between atoms: _22  and  _23
REMARK   11  A    between atoms: _25  and  _27
REMARK   12  A    between atoms: _27  and  _28
REMARK   13  A    between atoms: _27  and  _30
REMARK   14  A    between atoms: _30  and  _31
REMARK   15  A    between atoms: _31  and  _32
REMARK   16  A    between atoms: _37  and  _39
REMARK   17  A    between atoms: _39  and  _40
REMARK   18  A    between atoms: _39  and  _42
REMARK   19  A    between atoms: _42  and  _43
REMARK   20  A    between atoms: _46  and  _48
REMARK   21  A    between atoms: _48  and  _49
REMARK   22  A    between atoms: _48  and  _51
REMARK   23  A    between atoms: _52  and  _53
REMARK   24  A    between atoms: _56  and  _58
REMARK   25  A    between atoms: _58  and  _59
REMARK   26  A    between atoms: _61  and  _63
REMARK   27  A    between atoms: _63  and  _64
REMARK   28  A    between atoms: _63  and  _66
REMARK   29  A    between atoms: _70  and  _71
REMARK   30  A    between atoms: _76  and  _78
REMARK   31  A    between atoms: _78  and  _79
REMARK   32  A    between atoms: _78  and  _81
REMARK   33  A    between atoms: _81  and  _82
REMARK   34  A    between atoms: _82  and  _83
REMARK   35  A    between atoms: _86  and  _88
REMARK   36  A    between atoms: _88  and  _89
REMARK   37  A    between atoms: _88  and  _91
REMARK   38  A    between atoms: _91  and  _92
REMARK   39  A    between atoms: _94  and  _96
REMARK   40  A    between atoms: _96  and  _97
REMARK   41  A    between atoms: _96  and  _99
REMARK   42  A    between atoms: _99  and  _100
REMARK   43  A    between atoms: _105  and  _107
REMARK   44  A    between atoms: _107  and  _108
REMARK   45  A    between atoms: _107  and  _110
REMARK   46  A    between atoms: _110  and  _111
REMARK   47  A    between atoms: _111  and  _112
REMARK   48  A    between atoms: _112  and  _113
REMARK   49  A    between atoms: _123  and  _124
REMARK   50  A    between atoms: _129  and  _131
REMARK   51  A    between atoms: _131  and  _132
REMARK   52  A    between atoms: _131  and  _134
REMARK   53  A    between atoms: _134  and  _135
REMARK   54  A    between atoms: _140  and  _141
REMARK   55  A    between atoms: _143  and  _145
REMARK   56  A    between atoms: _145  and  _146
REMARK   57  A    between atoms: _145  and  _148
REMARK   58  A    between atoms: _148  and  _149
REMARK   59  A    between atoms: _154  and  _155
REMARK   60  A    between atoms: _157  and  _159
REMARK   61  A    between atoms: _159  and  _160
REMARK   62  A    between atoms: _159  and  _162
REMARK   63  A    between atoms: _165  and  _167
REMARK   64  A    between atoms: _167  and  _168
REMARK   65  A    between atoms: _167  and  _170
REMARK   66  A    between atoms: _170  and  _171
REMARK   67  A    between atoms: _177  and  _178
REMARK   68  A    between atoms: _183  and  _185
REMARK   69  A    between atoms: _185  and  _186
REMARK   70  A    between atoms: _185  and  _188
REMARK   71  A    between atoms: _188  and  _189
REMARK   72  A    between atoms: _191  and  _193
REMARK   73  A    between atoms: _193  and  _194
REMARK   74  A    between atoms: _193  and  _196
REMARK   75  A    between atoms: _196  and  _197
REMARK   76  A    between atoms: _197  and  _198
REMARK   77  A    between atoms: _201  and  _203
REMARK   78  A    between atoms: _203  and  _204
REMARK   79  A    between atoms: _203  and  _206
REMARK   80  A    between atoms: _206  and  _207
REMARK   81  A    between atoms: _212  and  _213
REMARK   82  A    between atoms: _215  and  _217
REMARK   83  A    between atoms: _217  and  _218
REMARK   84  A    between atoms: _217  and  _220
REMARK   85  A    between atoms: _220  and  _221
REMARK   86  A    between atoms: _226  and  _228
REMARK   87  A    between atoms: _228  and  _229
REMARK   88  A    between atoms: _228  and  _231
REMARK   89  A    between atoms: _231  and  _232
REMARK   90  A    between atoms: _237  and  _239
REMARK   91  A    between atoms: _239  and  _240
REMARK   92  A    between atoms: _239  and  _242
REMARK   93  A    between atoms: _242  and  _243
REMARK   94  A    between atoms: _243  and  _244
REMARK   95  A    between atoms: _246  and  _248
REMARK   96  A    between atoms: _248  and  _249
REMARK   97  A    between atoms: _248  and  _251
REMARK   98  A    between atoms: _251  and  _252
REMARK   99  A    between atoms: _257  and  _258
REMARK  100  A    between atoms: _260  and  _262
REMARK  101  A    between atoms: _262  and  _263
REMARK  102  A    between atoms: _262  and  _265
REMARK  103  A    between atoms: _265  and  _266
REMARK  104  A    between atoms: _269  and  _271
REMARK  105  A    between atoms: _271  and  _272
REMARK  106  A    between atoms: _271  and  _274
REMARK  107  A    between atoms: _274  and  _275
REMARK  108  A    between atoms: _275  and  _492
REMARK  109  A    between atoms: _276  and  _278
REMARK  110  A    between atoms: _278  and  _279
REMARK  111  A    between atoms: _278  and  _281
REMARK  112  A    between atoms: _281  and  _282
REMARK  113  A    between atoms: _285  and  _287
REMARK  114  A    between atoms: _287  and  _288
REMARK  115  A    between atoms: _287  and  _290
REMARK  116  A    between atoms: _290  and  _291
REMARK  117  A    between atoms: _296  and  _297
REMARK  118  A    between atoms: _299  and  _301
REMARK  119  A    between atoms: _301  and  _302
REMARK  120  A    between atoms: _301  and  _304
REMARK  121  A    between atoms: _304  and  _305
REMARK  122  A    between atoms: _310  and  _311
REMARK  123  A    between atoms: _313  and  _315
REMARK  124  A    between atoms: _315  and  _316
REMARK  125  A    between atoms: _315  and  _318
REMARK  126  A    between atoms: _318  and  _319
REMARK  127  A    between atoms: _319  and  _320
REMARK  128  A    between atoms: _323  and  _325
REMARK  129  A    between atoms: _325  and  _326
REMARK  130  A    between atoms: _325  and  _328
REMARK  131  A    between atoms: _328  and  _329
REMARK  132  A    between atoms: _334  and  _335
REMARK  133  A    between atoms: _337  and  _339
REMARK  134  A    between atoms: _339  and  _340
REMARK  135  A    between atoms: _339  and  _342
REMARK  136  A    between atoms: _342  and  _343
REMARK  137  A    between atoms: _348  and  _350
REMARK  138  A    between atoms: _350  and  _351
REMARK  139  A    between atoms: _350  and  _353
REMARK  140  A    between atoms: _353  and  _354
REMARK  141  A    between atoms: _357  and  _359
REMARK  142  A    between atoms: _359  and  _360
REMARK  143  A    between atoms: _359  and  _362
REMARK  144  A    between atoms: _362  and  _363
REMARK  145  A    between atoms: _368  and  _370
REMARK  146  A    between atoms: _370  and  _371
REMARK  147  A    between atoms: _370  and  _373
REMARK  148  A    between atoms: _373  and  _374
REMARK  149  A    between atoms: _384  and  _386
REMARK  150  A    between atoms: _386  and  _387
REMARK  151  A    between atoms: _386  and  _389
REMARK  152  A    between atoms: _389  and  _390
REMARK  153  A    between atoms: _396  and  _398
REMARK  154  A    between atoms: _398  and  _399
REMARK  155  A    between atoms: _398  and  _401
REMARK  156  A    between atoms: _401  and  _402
REMARK  157  A    between atoms: _405  and  _407
REMARK  158  A    between atoms: _407  and  _408
REMARK  159  A    between atoms: _407  and  _410
REMARK  160  A    between atoms: _410  and  _411
REMARK  161  A    between atoms: _414  and  _416
REMARK  162  A    between atoms: _416  and  _417
REMARK  163  A    between atoms: _416  and  _419
REMARK  164  A    between atoms: _419  and  _420
REMARK  165  A    between atoms: _420  and  _421
REMARK  166  A    between atoms: _421  and  _422
REMARK  167  A    between atoms: _431  and  _433
REMARK  168  A    between atoms: _433  and  _434
REMARK  169  A    between atoms: _433  and  _436
REMARK  170  A    between atoms: _436  and  _437
REMARK  171  A    between atoms: _442  and  _444
REMARK  172  A    between atoms: _444  and  _445
REMARK  173  A    between atoms: _444  and  _447
REMARK  174  A    between atoms: _447  and  _448
REMARK  175  A    between atoms: _449  and  _450
REMARK  176  A    between atoms: _459  and  _461
REMARK  177  A    between atoms: _461  and  _462
REMARK  178  A    between atoms: _465  and  _467
REMARK  179  A    between atoms: _467  and  _468
REMARK  180  A    between atoms: _470  and  _472
REMARK  181  A    between atoms: _472  and  _473
REMARK  182  A    between atoms: _472  and  _475
REMARK  183  A    between atoms: _475  and  _476
REMARK  184  A    between atoms: _486  and  _488
REMARK  185  A    between atoms: _488  and  _489
REMARK  186  A    between atoms: _488  and  _491
REMARK  187  A    between atoms: _491  and  _492
REMARK  188  A    between atoms: _493  and  _495
REMARK  189  A    between atoms: _495  and  _496
REMARK  190  A    between atoms: _499  and  _501
REMARK  191  A    between atoms: _501  and  _502
REMARK  192  A    between atoms: _501  and  _504
REMARK  193  A    between atoms: _504  and  _505
REMARK  194  A    between atoms: _508  and  _510
REMARK  195  A    between atoms: _510  and  _511
REMARK  196  A    between atoms: _510  and  _513
REMARK  197  A    between atoms: _513  and  _514
REMARK  198  A    between atoms: _519  and  _520
REMARK  199  A    between atoms: _522  and  _524
REMARK  200  A    between atoms: _524  and  _525
REMARK  201  A    between atoms: _524  and  _527
REMARK  202  A    between atoms: _527  and  _528
REMARK  203  A    between atoms: _530  and  _532
REMARK  204  A    between atoms: _532  and  _533
REMARK  205  A    between atoms: _532  and  _535
REMARK  206  A    between atoms: _535  and  _536
REMARK  207  A    between atoms: _542  and  _544
REMARK  208  A    between atoms: _544  and  _545
REMARK  209  A    between atoms: _544  and  _547
REMARK  210  A    between atoms: _547  and  _548
REMARK  211  A    between atoms: _551  and  _553
REMARK  212  A    between atoms: _553  and  _554
REMARK  213  A    between atoms: _553  and  _556
REMARK  214  A    between atoms: _556  and  _557
REMARK  215  A    between atoms: _559  and  _561
REMARK  216  A    between atoms: _561  and  _562
REMARK  217  A    between atoms: _561  and  _564
REMARK  218  A    between atoms: _564  and  _565
REMARK  219  A    between atoms: _570  and  _572
REMARK  220  A    between atoms: _572  and  _573
REMARK  221  A    between atoms: _572  and  _575
REMARK  222  A    between atoms: _575  and  _576
REMARK  223  A    between atoms: _581  and  _583
REMARK  224  A    between atoms: _583  and  _584
REMARK  225  A    between atoms: _583  and  _586
REMARK  226  A    between atoms: _586  and  _587
REMARK  227  A    between atoms: _590  and  _592
REMARK  228  A    between atoms: _592  and  _593
REMARK  229  A    between atoms: _596  and  _598
REMARK  230  A    between atoms: _598  and  _599
REMARK  231  A    between atoms: _598  and  _601
REMARK  232  A    between atoms: _601  and  _602
REMARK  233  A    between atoms: _607  and  _608
REMARK  234  A    between atoms: _610  and  _612
REMARK  235  A    between atoms: _612  and  _613
REMARK  236  A    between atoms: _612  and  _615
REMARK  237  A    between atoms: _615  and  _616
REMARK  238  A    between atoms: _621  and  _622
REMARK  239  A    between atoms: _624  and  _626
REMARK  240  A    between atoms: _626  and  _627
REMARK  241  A    between atoms: _626  and  _629
REMARK  242  A    between atoms: _632  and  _634
REMARK  243  A    between atoms: _634  and  _635
REMARK  244  A    between atoms: _634  and  _637
REMARK  245  A    between atoms: _637  and  _638
REMARK  246  A    between atoms: _643  and  _645
REMARK  247  A    between atoms: _645  and  _646
REMARK  248  A    between atoms: _649  and  _651
REMARK  249  A    between atoms: _651  and  _652
REMARK  250  A    between atoms: _651  and  _654
REMARK  251  A    between atoms: _654  and  _655
REMARK  252  A    between atoms: _655  and  _656
REMARK  253  A    between atoms: _656  and  _657
REMARK  254  A    between atoms: _666  and  _668
REMARK  255  A    between atoms: _668  and  _669
REMARK  256  A    between atoms: _668  and  _671
REMARK  257  A    between atoms: _671  and  _672
REMARK  258  A    between atoms: _675  and  _677
REMARK  259  A    between atoms: _677  and  _678
REMARK  260  A    between atoms: _677  and  _680
REMARK  261  A    between atoms: _680  and  _681
REMARK  262  A    between atoms: _684  and  _686
REMARK  263  A    between atoms: _686  and  _687
REMARK  264  A    between atoms: _686  and  _689
REMARK  265  A    between atoms: _689  and  _690
REMARK                            x       y       z     vdW  Elec       q    Type
REMARK                         _______ _______ _______ _____ _____    ______ ____
ROOT
ATOM      1  O   HOH     1       6.801  26.261  19.485  0.00  0.00    +0.000 OA
ENDROOT
TORSDOF 0
REMARK  Name = ../refined-set-2016/1b2h/1b2h_pocket.pdb
REMARK  265 active torsions:
REMARK  status: ('A' for Active; 'I' for Inactive)
REMARK    1  A    between atoms: _1  and  _3
REMARK    2  A    between atoms: _3  and  _4
REMARK    3  A    between atoms: _3  and  _6
REMARK    4  A    between atoms: _6  and  _7
REMARK    5  A    between atoms: _12  and  _14
REMARK    6  A    between atoms: _14  and  _15
REMARK    7  A    between atoms: _17  and  _19
REMARK    8  A    between atoms: _19  and  _20
REMARK    9  A    between atoms: _19  and  _22
REMARK   10  A    between atoms: _22  and  _23
REMARK   11  A    between atoms: _25  and  _27
REMARK   12  A    between atoms: _27  and  _28
REMARK   13  A    between atoms: _27  and  _30
REMARK   14  A    between atoms: _30  and  _31
REMARK   15  A    between atoms: _31  and  _32
REMARK   16  A    between atoms: _37  and  _39
REMARK   17  A    between atoms: _39  and  _40
REMARK   18  A    between atoms: _39  and  _42
REMARK   19  A    between atoms: _42  and  _43
REMARK   20  A    between atoms: _46  and  _48
REMARK   21  A    between atoms: _48  and  _49
REMARK   22  A    between atoms: _48  and  _51
REMARK   23  A    between atoms: _52  and  _53
REMARK   24  A    between atoms: _56  and  _58
REMARK   25  A    between atoms: _58  and  _59
REMARK   26  A    between atoms: _61  and  _63
REMARK   27  A    between atoms: _63  and  _64
REMARK   28  A    between atoms: _63  and  _66
REMARK   29  A    between atoms: _70  and  _71
REMARK   30  A    between atoms: _76  and  _78
REMARK   31  A    between atoms: _78  and  _79
REMARK   32  A    between atoms: _78  and  _81
REMARK   33  A    between atoms: _81  and  _82
REMARK   34  A    between atoms: _82  and  _83
REMARK   35  A    between atoms: _86  and  _88
REMARK   36  A    between atoms: _88  and  _89
REMARK   37  A    between atoms: _88  and  _91
REMARK   38  A    between atoms: _91  and  _92
REMARK   39  A    between atoms: _94  and  _96
REMARK   40  A    between atoms: _96  and  _97
REMARK   41  A    between atoms: _96  and  _99
REMARK   42  A    between atoms: _99  and  _100
REMARK   43  A    between atoms: _105  and  _107
REMARK   44  A    between atoms: _107  and  _108
REMARK   45  A    between atoms: _107  and  _110
REMARK   46  A    between atoms: _110  and  _111
REMARK   47  A    between atoms: _111  and  _112
REMARK   48  A    between atoms: _112  and  _113
REMARK   49  A    between atoms: _123  and  _124
REMARK   50  A    between atoms: _129  and  _131
REMARK   51  A    between atoms: _131  and  _132
REMARK   52  A    between atoms: _131  and  _134
REMARK   53  A    between atoms: _134  and  _135
REMARK   54  A    between atoms: _140  and  _141
REMARK   55  A    between atoms: _143  and  _145
REMARK   56  A    between atoms: _145  and  _146
REMARK   57  A    between atoms: _145  and  _148
REMARK   58  A    between atoms: _148  and  _149
REMARK   59  A    between atoms: _154  and  _155
REMARK   60  A    between atoms: _157  and  _159
REMARK   61  A    between atoms: _159  and  _160
REMARK   62  A    between atoms: _159  and  _162
REMARK   63  A    between atoms: _165  and  _167
REMARK   64  A    between atoms: _167  and  _168
REMARK   65  A    between atoms: _167  and  _170
REMARK   66  A    between atoms: _170  and  _171
REMARK   67  A    between atoms: _177  and  _178
REMARK   68  A    between atoms: _183  and  _185
REMARK   69  A    between atoms: _185  and  _186
REMARK   70  A    between atoms: _185  and  _188
REMARK   71  A    between atoms: _188  and  _189
REMARK   72  A    between atoms: _191  and  _193
REMARK   73  A    between atoms: _193  and  _194
REMARK   74  A    between atoms: _193  and  _196
REMARK   75  A    between atoms: _196  and  _197
REMARK   76  A    between atoms: _197  and  _198
REMARK   77  A    between atoms: _201  and  _203
REMARK   78  A    between atoms: _203  and  _204
REMARK   79  A    between atoms: _203  and  _206
REMARK   80  A    between atoms: _206  and  _207
REMARK   81  A    between atoms: _212  and  _213
REMARK   82  A    between atoms: _215  and  _217
REMARK   83  A    between atoms: _217  and  _218
REMARK   84  A    between atoms: _217  and  _220
REMARK   85  A    between atoms: _220  and  _221
REMARK   86  A    between atoms: _226  and  _228
REMARK   87  A    between atoms: _228  and  _229
REMARK   88  A    between atoms: _228  and  _231
REMARK   89  A    between atoms: _231  and  _232
REMARK   90  A    between atoms: _237  and  _239
REMARK   91  A    between atoms: _239  and  _240
REMARK   92  A    between atoms: _239  and  _242
REMARK   93  A    between atoms: _242  and  _243
REMARK   94  A    between atoms: _243  and  _244
REMARK   95  A    between atoms: _246  and  _248
REMARK   96  A    between atoms: _248  and  _249
REMARK   97  A    between atoms: _248  and  _251
REMARK   98  A    between atoms: _251  and  _252
REMARK   99  A    between atoms: _257  and  _258
REMARK  100  A    between atoms: _260  and  _262
REMARK  101  A    between atoms: _262  and  _263
REMARK  102  A    between atoms: _262  and  _265
REMARK  103  A    between atoms: _265  and  _266
REMARK  104  A    between atoms: _269  and  _271
REMARK  105  A    between atoms: _271  and  _272
REMARK  106  A    between atoms: _271  and  _274
REMARK  107  A    between atoms: _274  and  _275
REMARK  108  A    between atoms: _275  and  _492
REMARK  109  A    between atoms: _276  and  _278
REMARK  110  A    between atoms: _278  and  _279
REMARK  111  A    between atoms: _278  and  _281
REMARK  112  A    between atoms: _281  and  _282
REMARK  113  A    between atoms: _285  and  _287
REMARK  114  A    between atoms: _287  and  _288
REMARK  115  A    between atoms: _287  and  _290
REMARK  116  A    between atoms: _290  and  _291
REMARK  117  A    between atoms: _296  and  _297
REMARK  118  A    between atoms: _299  and  _301
REMARK  119  A    between atoms: _301  and  _302
REMARK  120  A    between atoms: _301  and  _304
REMARK  121  A    between atoms: _304  and  _305
REMARK  122  A    between atoms: _310  and  _311
REMARK  123  A    between atoms: _313  and  _315
REMARK  124  A    between atoms: _315  and  _316
REMARK  125  A    between atoms: _315  and  _318
REMARK  126  A    between atoms: _318  and  _319
REMARK  127  A    between atoms: _319  and  _320
REMARK  128  A    between atoms: _323  and  _325
REMARK  129  A    between atoms: _325  and  _326
REMARK  130  A    between atoms: _325  and  _328
REMARK  131  A    between atoms: _328  and  _329
REMARK  132  A    between atoms: _334  and  _335
REMARK  133  A    between atoms: _337  and  _339
REMARK  134  A    between atoms: _339  and  _340
REMARK  135  A    between atoms: _339  and  _342
REMARK  136  A    between atoms: _342  and  _343
REMARK  137  A    between atoms: _348  and  _350
REMARK  138  A    between atoms: _350  and  _351
REMARK  139  A    between atoms: _350  and  _353
REMARK  140  A    between atoms: _353  and  _354
REMARK  141  A    between atoms: _357  and  _359
REMARK  142  A    between atoms: _359  and  _360
REMARK  143  A    between atoms: _359  and  _362
REMARK  144  A    between atoms: _362  and  _363
REMARK  145  A    between atoms: _368  and  _370
REMARK  146  A    between atoms: _370  and  _371
REMARK  147  A    between atoms: _370  and  _373
REMARK  148  A    between atoms: _373  and  _374
REMARK  149  A    between atoms: _384  and  _386
REMARK  150  A    between atoms: _386  and  _387
REMARK  151  A    between atoms: _386  and  _389
REMARK  152  A    between atoms: _389  and  _390
REMARK  153  A    between atoms: _396  and  _398
REMARK  154  A    between atoms: _398  and  _399
REMARK  155  A    between atoms: _398  and  _401
REMARK  156  A    between atoms: _401  and  _402
REMARK  157  A    between atoms: _405  and  _407
REMARK  158  A    between atoms: _407  and  _408
REMARK  159  A    between atoms: _407  and  _410
REMARK  160  A    between atoms: _410  and  _411
REMARK  161  A    between atoms: _414  and  _416
REMARK  162  A    between atoms: _416  and  _417
REMARK  163  A    between atoms: _416  and  _419
REMARK  164  A    between atoms: _419  and  _420
REMARK  165  A    between atoms: _420  and  _421
REMARK  166  A    between atoms: _421  and  _422
REMARK  167  A    between atoms: _431  and  _433
REMARK  168  A    between atoms: _433  and  _434
REMARK  169  A    between atoms: _433  and  _436
REMARK  170  A    between atoms: _436  and  _437
REMARK  171  A    between atoms: _442  and  _444
REMARK  172  A    between atoms: _444  and  _445
REMARK  173  A    between atoms: _444  and  _447
REMARK  174  A    between atoms: _447  and  _448
REMARK  175  A    between atoms: _449  and  _450
REMARK  176  A    between atoms: _459  and  _461
REMARK  177  A    between atoms: _461  and  _462
REMARK  178  A    between atoms: _465  and  _467
REMARK  179  A    between atoms: _467  and  _468
REMARK  180  A    between atoms: _470  and  _472
REMARK  181  A    between atoms: _472  and  _473
REMARK  182  A    between atoms: _472  and  _475
REMARK  183  A    between atoms: _475  and  _476
REMARK  184  A    between atoms: _486  and  _488
REMARK  185  A    between atoms: _488  and  _489
REMARK  186  A    between atoms: _488  and  _491
REMARK  187  A    between atoms: _491  and  _492
REMARK  188  A    between atoms: _493  and  _495
REMARK  189  A    between atoms: _495  and  _496
REMARK  190  A    between atoms: _499  and  _501
REMARK  191  A    between atoms: _501  and  _502
REMARK  192  A    between atoms: _501  and  _504
REMARK  193  A    between atoms: _504  and  _505
REMARK  194  A    between atoms: _508  and  _510
REMARK  195  A    between atoms: _510  and  _511
REMARK  196  A    between atoms: _510  and  _513
REMARK  197  A    between atoms: _513  and  _514
REMARK  198  A    between atoms: _519  and  _520
REMARK  199  A    between atoms: _522  and  _524
REMARK  200  A    between atoms: _524  and  _525
REMARK  201  A    between atoms: _524  and  _527
REMARK  202  A    between atoms: _527  and  _528
REMARK  203  A    between atoms: _530  and  _532
REMARK  204  A    between atoms: _532  and  _533
REMARK  205  A    between atoms: _532  and  _535
REMARK  206  A    between atoms: _535  and  _536
REMARK  207  A    between atoms: _542  and  _544
REMARK  208  A    between atoms: _544  and  _545
REMARK  209  A    between atoms: _544  and  _547
REMARK  210  A    between atoms: _547  and  _548
REMARK  211  A    between atoms: _551  and  _553
REMARK  212  A    between atoms: _553  and  _554
REMARK  213  A    between atoms: _553  and  _556
REMARK  214  A    between atoms: _556  and  _557
REMARK  215  A    between atoms: _559  and  _561
REMARK  216  A    between atoms: _561  and  _562
REMARK  217  A    between atoms: _561  and  _564
REMARK  218  A    between atoms: _564  and  _565
REMARK  219  A    between atoms: _570  and  _572
REMARK  220  A    between atoms: _572  and  _573
REMARK  221  A    between atoms: _572  and  _575
REMARK  222  A    between atoms: _575  and  _576
REMARK  223  A    between atoms: _581  and  _583
REMARK  224  A    between atoms: _583  and  _584
REMARK  225  A    between atoms: _583  and  _586
REMARK  226  A    between atoms: _586  and  _587
REMARK  227  A    between atoms: _590  and  _592
REMARK  228  A    between atoms: _592  and  _593
REMARK  229  A    between atoms: _596  and  _598
REMARK  230  A    between atoms: _598  and  _599
REMARK  231  A    between atoms: _598  and  _601
REMARK  232  A    between atoms: _601  and  _602
REMARK  233  A    between atoms: _607  and  _608
REMARK  234  A    between atoms: _610  and  _612
REMARK  235  A    between atoms: _612  and  _613
REMARK  236  A    between atoms: _612  and  _615
REMARK  237  A    between atoms: _615  and  _616
REMARK  238  A    between atoms: _621  and  _622
REMARK  239  A    between atoms: _624  and  _626
REMARK  240  A    between atoms: _626  and  _627
REMARK  241  A    between atoms: _626  and  _629
REMARK  242  A    between atoms: _632  and  _634
REMARK  243  A    between atoms: _634  and  _635
REMARK  244  A    between atoms: _634  and  _637
REMARK  245  A    between atoms: _637  and  _638
REMARK  246  A    between atoms: _643  and  _645
REMARK  247  A    between atoms: _645  and  _646
REMARK  248  A    between atoms: _649  and  _651
REMARK  249  A    between atoms: _651  and  _652
REMARK  250  A    between atoms: _651  and  _654
REMARK  251  A    between atoms: _654  and  _655
REMARK  252  A    between atoms: _655  and  _656
REMARK  253  A    between atoms: _656  and  _657
REMARK  254  A    between atoms: _666  and  _668
REMARK  255  A    between atoms: _668  and  _669
REMARK  256  A    between atoms: _668  and  _671
REMARK  257  A    between atoms: _671  and  _672
REMARK  258  A    between atoms: _675  and  _677
REMARK  259  A    between atoms: _677  and  _678
REMARK  260  A    between atoms: _677  and  _680
REMARK  261  A    between atoms: _680  and  _681
REMARK  262  A    between atoms: _684  and  _686
REMARK  263  A    between atoms: _686  and  _687
REMARK  264  A    between atoms: _686  and  _689
REMARK  265  A    between atoms: _689  and  _690
REMARK                            x       y       z     vdW  Elec       q    Type
REMARK                         _______ _______ _______ _____ _____    ______ ____
ROOT
ATOM      1  O   HOH     1       7.261  19.207  22.267  0.00  0.00    +0.000 OA
ENDROOT
TORSDOF 0
REMARK  Name = ../refined-set-2016/1b2h/1b2h_pocket.pdb
REMARK  265 active torsions:
REMARK  status: ('A' for Active; 'I' for Inactive)
REMARK    1  A    between atoms: _1  and  _3
REMARK    2  A    between atoms: _3  and  _4
REMARK    3  A    between atoms: _3  and  _6
REMARK    4  A    between atoms: _6  and  _7
REMARK    5  A    between atoms: _12  and  _14
REMARK    6  A    between atoms: _14  and  _15
REMARK    7  A    between atoms: _17  and  _19
REMARK    8  A    between atoms: _19  and  _20
REMARK    9  A    between atoms: _19  and  _22
REMARK   10  A    between atoms: _22  and  _23
REMARK   11  A    between atoms: _25  and  _27
REMARK   12  A    between atoms: _27  and  _28
REMARK   13  A    between atoms: _27  and  _30
REMARK   14  A    between atoms: _30  and  _31
REMARK   15  A    between atoms: _31  and  _32
REMARK   16  A    between atoms: _37  and  _39
REMARK   17  A    between atoms: _39  and  _40
REMARK   18  A    between atoms: _39  and  _42
REMARK   19  A    between atoms: _42  and  _43
REMARK   20  A    between atoms: _46  and  _48
REMARK   21  A    between atoms: _48  and  _49
REMARK   22  A    between atoms: _48  and  _51
REMARK   23  A    between atoms: _52  and  _53
REMARK   24  A    between atoms: _56  and  _58
REMARK   25  A    between atoms: _58  and  _59
REMARK   26  A    between atoms: _61  and  _63
REMARK   27  A    between atoms: _63  and  _64
REMARK   28  A    between atoms: _63  and  _66
REMARK   29  A    between atoms: _70  and  _71
REMARK   30  A    between atoms: _76  and  _78
REMARK   31  A    between atoms: _78  and  _79
REMARK   32  A    between atoms: _78  and  _81
REMARK   33  A    between atoms: _81  and  _82
REMARK   34  A    between atoms: _82  and  _83
REMARK   35  A    between atoms: _86  and  _88
REMARK   36  A    between atoms: _88  and  _89
REMARK   37  A    between atoms: _88  and  _91
REMARK   38  A    between atoms: _91  and  _92
REMARK   39  A    between atoms: _94  and  _96
REMARK   40  A    between atoms: _96  and  _97
REMARK   41  A    between atoms: _96  and  _99
REMARK   42  A    between atoms: _99  and  _100
REMARK   43  A    between atoms: _105  and  _107
REMARK   44  A    between atoms: _107  and  _108
REMARK   45  A    between atoms: _107  and  _110
REMARK   46  A    between atoms: _110  and  _111
REMARK   47  A    between atoms: _111  and  _112
REMARK   48  A    between atoms: _112  and  _113
REMARK   49  A    between atoms: _123  and  _124
REMARK   50  A    between atoms: _129  and  _131
REMARK   51  A    between atoms: _131  and  _132
REMARK   52  A    between atoms: _131  and  _134
REMARK   53  A    between atoms: _134  and  _135
REMARK   54  A    between atoms: _140  and  _141
REMARK   55  A    between atoms: _143  and  _145
REMARK   56  A    between atoms: _145  and  _146
REMARK   57  A    between atoms: _145  and  _148
REMARK   58  A    between atoms: _148  and  _149
REMARK   59  A    between atoms: _154  and  _155
REMARK   60  A    between atoms: _157  and  _159
REMARK   61  A    between atoms: _159  and  _160
REMARK   62  A    between atoms: _159  and  _162
REMARK   63  A    between atoms: _165  and  _167
REMARK   64  A    between atoms: _167  and  _168
REMARK   65  A    between atoms: _167  and  _170
REMARK   66  A    between atoms: _170  and  _171
REMARK   67  A    between atoms: _177  and  _178
REMARK   68  A    between atoms: _183  and  _185
REMARK   69  A    between atoms: _185  and  _186
REMARK   70  A    between atoms: _185  and  _188
REMARK   71  A    between atoms: _188  and  _189
REMARK   72  A    between atoms: _191  and  _193
REMARK   73  A    between atoms: _193  and  _194
REMARK   74  A    between atoms: _193  and  _196
REMARK   75  A    between atoms: _196  and  _197
REMARK   76  A    between atoms: _197  and  _198
REMARK   77  A    between atoms: _201  and  _203
REMARK   78  A    between atoms: _203  and  _204
REMARK   79  A    between atoms: _203  and  _206
REMARK   80  A    between atoms: _206  and  _207
REMARK   81  A    between atoms: _212  and  _213
REMARK   82  A    between atoms: _215  and  _217
REMARK   83  A    between atoms: _217  and  _218
REMARK   84  A    between atoms: _217  and  _220
REMARK   85  A    between atoms: _220  and  _221
REMARK   86  A    between atoms: _226  and  _228
REMARK   87  A    between atoms: _228  and  _229
REMARK   88  A    between atoms: _228  and  _231
REMARK   89  A    between atoms: _231  and  _232
REMARK   90  A    between atoms: _237  and  _239
REMARK   91  A    between atoms: _239  and  _240
REMARK   92  A    between atoms: _239  and  _242
REMARK   93  A    between atoms: _242  and  _243
REMARK   94  A    between atoms: _243  and  _244
REMARK   95  A    between atoms: _246  and  _248
REMARK   96  A    between atoms: _248  and  _249
REMARK   97  A    between atoms: _248  and  _251
REMARK   98  A    between atoms: _251  and  _252
REMARK   99  A    between atoms: _257  and  _258
REMARK  100  A    between atoms: _260  and  _262
REMARK  101  A    between atoms: _262  and  _263
REMARK  102  A    between atoms: _262  and  _265
REMARK  103  A    between atoms: _265  and  _266
REMARK  104  A    between atoms: _269  and  _271
REMARK  105  A    between atoms: _271  and  _272
REMARK  106  A    between atoms: _271  and  _274
REMARK  107  A    between atoms: _274  and  _275
REMARK  108  A    between atoms: _275  and  _492
REMARK  109  A    between atoms: _276  and  _278
REMARK  110  A    between atoms: _278  and  _279
REMARK  111  A    between atoms: _278  and  _281
REMARK  112  A    between atoms: _281  and  _282
REMARK  113  A    between atoms: _285  and  _287
REMARK  114  A    between atoms: _287  and  _288
REMARK  115  A    between atoms: _287  and  _290
REMARK  116  A    between atoms: _290  and  _291
REMARK  117  A    between atoms: _296  and  _297
REMARK  118  A    between atoms: _299  and  _301
REMARK  119  A    between atoms: _301  and  _302
REMARK  120  A    between atoms: _301  and  _304
REMARK  121  A    between atoms: _304  and  _305
REMARK  122  A    between atoms: _310  and  _311
REMARK  123  A    between atoms: _313  and  _315
REMARK  124  A    between atoms: _315  and  _316
REMARK  125  A    between atoms: _315  and  _318
REMARK  126  A    between atoms: _318  and  _319
REMARK  127  A    between atoms: _319  and  _320
REMARK  128  A    between atoms: _323  and  _325
REMARK  129  A    between atoms: _325  and  _326
REMARK  130  A    between atoms: _325  and  _328
REMARK  131  A    between atoms: _328  and  _329
REMARK  132  A    between atoms: _334  and  _335
REMARK  133  A    between atoms: _337  and  _339
REMARK  134  A    between atoms: _339  and  _340
REMARK  135  A    between atoms: _339  and  _342
REMARK  136  A    between atoms: _342  and  _343
REMARK  137  A    between atoms: _348  and  _350
REMARK  138  A    between atoms: _350  and  _351
REMARK  139  A    between atoms: _350  and  _353
REMARK  140  A    between atoms: _353  and  _354
REMARK  141  A    between atoms: _357  and  _359
REMARK  142  A    between atoms: _359  and  _360
REMARK  143  A    between atoms: _359  and  _362
REMARK  144  A    between atoms: _362  and  _363
REMARK  145  A    between atoms: _368  and  _370
REMARK  146  A    between atoms: _370  and  _371
REMARK  147  A    between atoms: _370  and  _373
REMARK  148  A    between atoms: _373  and  _374
REMARK  149  A    between atoms: _384  and  _386
REMARK  150  A    between atoms: _386  and  _387
REMARK  151  A    between atoms: _386  and  _389
REMARK  152  A    between atoms: _389  and  _390
REMARK  153  A    between atoms: _396  and  _398
REMARK  154  A    between atoms: _398  and  _399
REMARK  155  A    between atoms: _398  and  _401
REMARK  156  A    between atoms: _401  and  _402
REMARK  157  A    between atoms: _405  and  _407
REMARK  158  A    between atoms: _407  and  _408
REMARK  159  A    between atoms: _407  and  _410
REMARK  160  A    between atoms: _410  and  _411
REMARK  161  A    between atoms: _414  and  _416
REMARK  162  A    between atoms: _416  and  _417
REMARK  163  A    between atoms: _416  and  _419
REMARK  164  A    between atoms: _419  and  _420
REMARK  165  A    between atoms: _420  and  _421
REMARK  166  A    between atoms: _421  and  _422
REMARK  167  A    between atoms: _431  and  _433
REMARK  168  A    between atoms: _433  and  _434
REMARK  169  A    between atoms: _433  and  _436
REMARK  170  A    between atoms: _436  and  _437
REMARK  171  A    between atoms: _442  and  _444
REMARK  172  A    between atoms: _444  and  _445
REMARK  173  A    between atoms: _444  and  _447
REMARK  174  A    between atoms: _447  and  _448
REMARK  175  A    between atoms: _449  and  _450
REMARK  176  A    between atoms: _459  and  _461
REMARK  177  A    between atoms: _461  and  _462
REMARK  178  A    between atoms: _465  and  _467
REMARK  179  A    between atoms: _467  and  _468
REMARK  180  A    between atoms: _470  and  _472
REMARK  181  A    between atoms: _472  and  _473
REMARK  182  A    between atoms: _472  and  _475
REMARK  183  A    between atoms: _475  and  _476
REMARK  184  A    between atoms: _486  and  _488
REMARK  185  A    between atoms: _488  and  _489
REMARK  186  A    between atoms: _488  and  _491
REMARK  187  A    between atoms: _491  and  _492
REMARK  188  A    between atoms: _493  and  _495
REMARK  189  A    between atoms: _495  and  _496
REMARK  190  A    between atoms: _499  and  _501
REMARK  191  A    between atoms: _501  and  _502
REMARK  192  A    between atoms: _501  and  _504
REMARK  193  A    between atoms: _504  and  _505
REMARK  194  A    between atoms: _508  and  _510
REMARK  195  A    between atoms: _510  and  _511
REMARK  196  A    between atoms: _510  and  _513
REMARK  197  A    between atoms: _513  and  _514
REMARK  198  A    between atoms: _519  and  _520
REMARK  199  A    between atoms: _522  and  _524
REMARK  200  A    between atoms: _524  and  _525
REMARK  201  A    between atoms: _524  and  _527
REMARK  202  A    between atoms: _527  and  _528
REMARK  203  A    between atoms: _530  and  _532
REMARK  204  A    between atoms: _532  and  _533
REMARK  205  A    between atoms: _532  and  _535
REMARK  206  A    between atoms: _535  and  _536
REMARK  207  A    between atoms: _542  and  _544
REMARK  208  A    between atoms: _544  and  _545
REMARK  209  A    between atoms: _544  and  _547
REMARK  210  A    between atoms: _547  and  _548
REMARK  211  A    between atoms: _551  and  _553
REMARK  212  A    between atoms: _553  and  _554
REMARK  213  A    between atoms: _553  and  _556
REMARK  214  A    between atoms: _556  and  _557
REMARK  215  A    between atoms: _559  and  _561
REMARK  216  A    between atoms: _561  and  _562
REMARK  217  A    between atoms: _561  and  _564
REMARK  218  A    between atoms: _564  and  _565
REMARK  219  A    between atoms: _570  and  _572
REMARK  220  A    between atoms: _572  and  _573
REMARK  221  A    between atoms: _572  and  _575
REMARK  222  A    between atoms: _575  and  _576
REMARK  223  A    between atoms: _581  and  _583
REMARK  224  A    between atoms: _583  and  _584
REMARK  225  A    between atoms: _583  and  _586
REMARK  226  A    between atoms: _586  and  _587
REMARK  227  A    between atoms: _590  and  _592
REMARK  228  A    between atoms: _592  and  _593
REMARK  229  A    between atoms: _596  and  _598
REMARK  230  A    between atoms: _598  and  _599
REMARK  231  A    between atoms: _598  and  _601
REMARK  232  A    between atoms: _601  and  _602
REMARK  233  A    between atoms: _607  and  _608
REMARK  234  A    between atoms: _610  and  _612
REMARK  235  A    between atoms: _612  and  _613
REMARK  236  A    between atoms: _612  and  _615
REMARK  237  A    between atoms: _615  and  _616
REMARK  238  A    between atoms: _621  and  _622
REMARK  239  A    between atoms: _624  and  _626
REMARK  240  A    between atoms: _626  and  _627
REMARK  241  A    between atoms: _626  and  _629
REMARK  242  A    between atoms: _632  and  _634
REMARK  243  A    between atoms: _634  and  _635
REMARK  244  A    between atoms: _634  and  _637
REMARK  245  A    between atoms: _637  and  _638
REMARK  246  A    between atoms: _643  and  _645
REMARK  247  A    between atoms: _645  and  _646
REMARK  248  A    between atoms: _649  and  _651
REMARK  249  A    between atoms: _651  and  _652
REMARK  250  A    between atoms: _651  and  _654
REMARK  251  A    between atoms: _654  and  _655
REMARK  252  A    between atoms: _655  and  _656
REMARK  253  A    between atoms: _656  and  _657
REMARK  254  A    between atoms: _666  and  _668
REMARK  255  A    between atoms: _668  and  _669
REMARK  256  A    between atoms: _668  and  _671
REMARK  257  A    between atoms: _671  and  _672
REMARK  258  A    between atoms: _675  and  _677
REMARK  259  A    between atoms: _677  and  _678
REMARK  260  A    between atoms: _677  and  _680
REMARK  261  A    between atoms: _680  and  _681
REMARK  262  A    between atoms: _684  and  _686
REMARK  263  A    between atoms: _686  and  _687
REMARK  264  A    between atoms: _686  and  _689
REMARK  265  A    between atoms: _689  and  _690
REMARK                            x       y       z     vdW  Elec       q    Type
REMARK                         _______ _______ _______ _____ _____    ______ ____
ROOT
ATOM      1  O   HOH     1       8.851  26.730  15.820  0.00  0.00    +0.000 OA
ENDROOT
TORSDOF 0
REMARK  Name = ../refined-set-2016/1b2h/1b2h_pocket.pdb
REMARK  265 active torsions:
REMARK  status: ('A' for Active; 'I' for Inactive)
REMARK    1  A    between atoms: _1  and  _3
REMARK    2  A    between atoms: _3  and  _4
REMARK    3  A    between atoms: _3  and  _6
REMARK    4  A    between atoms: _6  and  _7
REMARK    5  A    between atoms: _12  and  _14
REMARK    6  A    between atoms: _14  and  _15
REMARK    7  A    between atoms: _17  and  _19
REMARK    8  A    between atoms: _19  and  _20
REMARK    9  A    between atoms: _19  and  _22
REMARK   10  A    between atoms: _22  and  _23
REMARK   11  A    between atoms: _25  and  _27
REMARK   12  A    between atoms: _27  and  _28
REMARK   13  A    between atoms: _27  and  _30
REMARK   14  A    between atoms: _30  and  _31
REMARK   15  A    between atoms: _31  and  _32
REMARK   16  A    between atoms: _37  and  _39
REMARK   17  A    between atoms: _39  and  _40
REMARK   18  A    between atoms: _39  and  _42
REMARK   19  A    between atoms: _42  and  _43
REMARK   20  A    between atoms: _46  and  _48
REMARK   21  A    between atoms: _48  and  _49
REMARK   22  A    between atoms: _48  and  _51
REMARK   23  A    between atoms: _52  and  _53
REMARK   24  A    between atoms: _56  and  _58
REMARK   25  A    between atoms: _58  and  _59
REMARK   26  A    between atoms: _61  and  _63
REMARK   27  A    between atoms: _63  and  _64
REMARK   28  A    between atoms: _63  and  _66
REMARK   29  A    between atoms: _70  and  _71
REMARK   30  A    between atoms: _76  and  _78
REMARK   31  A    between atoms: _78  and  _79
REMARK   32  A    between atoms: _78  and  _81
REMARK   33  A    between atoms: _81  and  _82
REMARK   34  A    between atoms: _82  and  _83
REMARK   35  A    between atoms: _86  and  _88
REMARK   36  A    between atoms: _88  and  _89
REMARK   37  A    between atoms: _88  and  _91
REMARK   38  A    between atoms: _91  and  _92
REMARK   39  A    between atoms: _94  and  _96
REMARK   40  A    between atoms: _96  and  _97
REMARK   41  A    between atoms: _96  and  _99
REMARK   42  A    between atoms: _99  and  _100
REMARK   43  A    between atoms: _105  and  _107
REMARK   44  A    between atoms: _107  and  _108
REMARK   45  A    between atoms: _107  and  _110
REMARK   46  A    between atoms: _110  and  _111
REMARK   47  A    between atoms: _111  and  _112
REMARK   48  A    between atoms: _112  and  _113
REMARK   49  A    between atoms: _123  and  _124
REMARK   50  A    between atoms: _129  and  _131
REMARK   51  A    between atoms: _131  and  _132
REMARK   52  A    between atoms: _131  and  _134
REMARK   53  A    between atoms: _134  and  _135
REMARK   54  A    between atoms: _140  and  _141
REMARK   55  A    between atoms: _143  and  _145
REMARK   56  A    between atoms: _145  and  _146
REMARK   57  A    between atoms: _145  and  _148
REMARK   58  A    between atoms: _148  and  _149
REMARK   59  A    between atoms: _154  and  _155
REMARK   60  A    between atoms: _157  and  _159
REMARK   61  A    between atoms: _159  and  _160
REMARK   62  A    between atoms: _159  and  _162
REMARK   63  A    between atoms: _165  and  _167
REMARK   64  A    between atoms: _167  and  _168
REMARK   65  A    between atoms: _167  and  _170
REMARK   66  A    between atoms: _170  and  _171
REMARK   67  A    between atoms: _177  and  _178
REMARK   68  A    between atoms: _183  and  _185
REMARK   69  A    between atoms: _185  and  _186
REMARK   70  A    between atoms: _185  and  _188
REMARK   71  A    between atoms: _188  and  _189
REMARK   72  A    between atoms: _191  and  _193
REMARK   73  A    between atoms: _193  and  _194
REMARK   74  A    between atoms: _193  and  _196
REMARK   75  A    between atoms: _196  and  _197
REMARK   76  A    between atoms: _197  and  _198
REMARK   77  A    between atoms: _201  and  _203
REMARK   78  A    between atoms: _203  and  _204
REMARK   79  A    between atoms: _203  and  _206
REMARK   80  A    between atoms: _206  and  _207
REMARK   81  A    between atoms: _212  and  _213
REMARK   82  A    between atoms: _215  and  _217
REMARK   83  A    between atoms: _217  and  _218
REMARK   84  A    between atoms: _217  and  _220
REMARK   85  A    between atoms: _220  and  _221
REMARK   86  A    between atoms: _226  and  _228
REMARK   87  A    between atoms: _228  and  _229
REMARK   88  A    between atoms: _228  and  _231
REMARK   89  A    between atoms: _231  and  _232
REMARK   90  A    between atoms: _237  and  _239
REMARK   91  A    between atoms: _239  and  _240
REMARK   92  A    between atoms: _239  and  _242
REMARK   93  A    between atoms: _242  and  _243
REMARK   94  A    between atoms: _243  and  _244
REMARK   95  A    between atoms: _246  and  _248
REMARK   96  A    between atoms: _248  and  _249
REMARK   97  A    between atoms: _248  and  _251
REMARK   98  A    between atoms: _251  and  _252
REMARK   99  A    between atoms: _257  and  _258
REMARK  100  A    between atoms: _260  and  _262
REMARK  101  A    between atoms: _262  and  _263
REMARK  102  A    between atoms: _262  and  _265
REMARK  103  A    between atoms: _265  and  _266
REMARK  104  A    between atoms: _269  and  _271
REMARK  105  A    between atoms: _271  and  _272
REMARK  106  A    between atoms: _271  and  _274
REMARK  107  A    between atoms: _274  and  _275
REMARK  108  A    between atoms: _275  and  _492
REMARK  109  A    between atoms: _276  and  _278
REMARK  110  A    between atoms: _278  and  _279
REMARK  111  A    between atoms: _278  and  _281
REMARK  112  A    between atoms: _281  and  _282
REMARK  113  A    between atoms: _285  and  _287
REMARK  114  A    between atoms: _287  and  _288
REMARK  115  A    between atoms: _287  and  _290
REMARK  116  A    between atoms: _290  and  _291
REMARK  117  A    between atoms: _296  and  _297
REMARK  118  A    between atoms: _299  and  _301
REMARK  119  A    between atoms: _301  and  _302
REMARK  120  A    between atoms: _301  and  _304
REMARK  121  A    between atoms: _304  and  _305
REMARK  122  A    between atoms: _310  and  _311
REMARK  123  A    between atoms: _313  and  _315
REMARK  124  A    between atoms: _315  and  _316
REMARK  125  A    between atoms: _315  and  _318
REMARK  126  A    between atoms: _318  and  _319
REMARK  127  A    between atoms: _319  and  _320
REMARK  128  A    between atoms: _323  and  _325
REMARK  129  A    between atoms: _325  and  _326
REMARK  130  A    between atoms: _325  and  _328
REMARK  131  A    between atoms: _328  and  _329
REMARK  132  A    between atoms: _334  and  _335
REMARK  133  A    between atoms: _337  and  _339
REMARK  134  A    between atoms: _339  and  _340
REMARK  135  A    between atoms: _339  and  _342
REMARK  136  A    between atoms: _342  and  _343
REMARK  137  A    between atoms: _348  and  _350
REMARK  138  A    between atoms: _350  and  _351
REMARK  139  A    between atoms: _350  and  _353
REMARK  140  A    between atoms: _353  and  _354
REMARK  141  A    between atoms: _357  and  _359
REMARK  142  A    between atoms: _359  and  _360
REMARK  143  A    between atoms: _359  and  _362
REMARK  144  A    between atoms: _362  and  _363
REMARK  145  A    between atoms: _368  and  _370
REMARK  146  A    between atoms: _370  and  _371
REMARK  147  A    between atoms: _370  and  _373
REMARK  148  A    between atoms: _373  and  _374
REMARK  149  A    between atoms: _384  and  _386
REMARK  150  A    between atoms: _386  and  _387
REMARK  151  A    between atoms: _386  and  _389
REMARK  152  A    between atoms: _389  and  _390
REMARK  153  A    between atoms: _396  and  _398
REMARK  154  A    between atoms: _398  and  _399
REMARK  155  A    between atoms: _398  and  _401
REMARK  156  A    between atoms: _401  and  _402
REMARK  157  A    between atoms: _405  and  _407
REMARK  158  A    between atoms: _407  and  _408
REMARK  159  A    between atoms: _407  and  _410
REMARK  160  A    between atoms: _410  and  _411
REMARK  161  A    between atoms: _414  and  _416
REMARK  162  A    between atoms: _416  and  _417
REMARK  163  A    between atoms: _416  and  _419
REMARK  164  A    between atoms: _419  and  _420
REMARK  165  A    between atoms: _420  and  _421
REMARK  166  A    between atoms: _421  and  _422
REMARK  167  A    between atoms: _431  and  _433
REMARK  168  A    between atoms: _433  and  _434
REMARK  169  A    between atoms: _433  and  _436
REMARK  170  A    between atoms: _436  and  _437
REMARK  171  A    between atoms: _442  and  _444
REMARK  172  A    between atoms: _444  and  _445
REMARK  173  A    between atoms: _444  and  _447
REMARK  174  A    between atoms: _447  and  _448
REMARK  175  A    between atoms: _449  and  _450
REMARK  176  A    between atoms: _459  and  _461
REMARK  177  A    between atoms: _461  and  _462
REMARK  178  A    between atoms: _465  and  _467
REMARK  179  A    between atoms: _467  and  _468
REMARK  180  A    between atoms: _470  and  _472
REMARK  181  A    between atoms: _472  and  _473
REMARK  182  A    between atoms: _472  and  _475
REMARK  183  A    between atoms: _475  and  _476
REMARK  184  A    between atoms: _486  and  _488
REMARK  185  A    between atoms: _488  and  _489
REMARK  186  A    between atoms: _488  and  _491
REMARK  187  A    between atoms: _491  and  _492
REMARK  188  A    between atoms: _493  and  _495
REMARK  189  A    between atoms: _495  and  _496
REMARK  190  A    between atoms: _499  and  _501
REMARK  191  A    between atoms: _501  and  _502
REMARK  192  A    between atoms: _501  and  _504
REMARK  193  A    between atoms: _504  and  _505
REMARK  194  A    between atoms: _508  and  _510
REMARK  195  A    between atoms: _510  and  _511
REMARK  196  A    between atoms: _510  and  _513
REMARK  197  A    between atoms: _513  and  _514
REMARK  198  A    between atoms: _519  and  _520
REMARK  199  A    between atoms: _522  and  _524
REMARK  200  A    between atoms: _524  and  _525
REMARK  201  A    between atoms: _524  and  _527
REMARK  202  A    between atoms: _527  and  _528
REMARK  203  A    between atoms: _530  and  _532
REMARK  204  A    between atoms: _532  and  _533
REMARK  205  A    between atoms: _532  and  _535
REMARK  206  A    between atoms: _535  and  _536
REMARK  207  A    between atoms: _542  and  _544
REMARK  208  A    between atoms: _544  and  _545
REMARK  209  A    between atoms: _544  and  _547
REMARK  210  A    between atoms: _547  and  _548
REMARK  211  A    between atoms: _551  and  _553
REMARK  212  A    between atoms: _553  and  _554
REMARK  213  A    between atoms: _553  and  _556
REMARK  214  A    between atoms: _556  and  _557
REMARK  215  A    between atoms: _559  and  _561
REMARK  216  A    between atoms: _561  and  _562
REMARK  217  A    between atoms: _561  and  _564
REMARK  218  A    between atoms: _564  and  _565
REMARK  219  A    between atoms: _570  and  _572
REMARK  220  A    between atoms: _572  and  _573
REMARK  221  A    between atoms: _572  and  _575
REMARK  222  A    between atoms: _575  and  _576
REMARK  223  A    between atoms: _581  and  _583
REMARK  224  A    between atoms: _583  and  _584
REMARK  225  A    between atoms: _583  and  _586
REMARK  226  A    between atoms: _586  and  _587
REMARK  227  A    between atoms: _590  and  _592
REMARK  228  A    between atoms: _592  and  _593
REMARK  229  A    between atoms: _596  and  _598
REMARK  230  A    between atoms: _598  and  _599
REMARK  231  A    between atoms: _598  and  _601
REMARK  232  A    between atoms: _601  and  _602
REMARK  233  A    between atoms: _607  and  _608
REMARK  234  A    between atoms: _610  and  _612
REMARK  235  A    between atoms: _612  and  _613
REMARK  236  A    between atoms: _612  and  _615
REMARK  237  A    between atoms: _615  and  _616
REMARK  238  A    between atoms: _621  and  _622
REMARK  239  A    between atoms: _624  and  _626
REMARK  240  A    between atoms: _626  and  _627
REMARK  241  A    between atoms: _626  and  _629
REMARK  242  A    between atoms: _632  and  _634
REMARK  243  A    between atoms: _634  and  _635
REMARK  244  A    between atoms: _634  and  _637
REMARK  245  A    between atoms: _637  and  _638
REMARK  246  A    between atoms: _643  and  _645
REMARK  247  A    between atoms: _645  and  _646
REMARK  248  A    between atoms: _649  and  _651
REMARK  249  A    between atoms: _651  and  _652
REMARK  250  A    between atoms: _651  and  _654
REMARK  251  A    between atoms: _654  and  _655
REMARK  252  A    between atoms: _655  and  _656
REMARK  253  A    between atoms: _656  and  _657
REMARK  254  A    between atoms: _666  and  _668
REMARK  255  A    between atoms: _668  and  _669
REMARK  256  A    between atoms: _668  and  _671
REMARK  257  A    between atoms: _671  and  _672
REMARK  258  A    between atoms: _675  and  _677
REMARK  259  A    between atoms: _677  and  _678
REMARK  260  A    between atoms: _677  and  _680
REMARK  261  A    between atoms: _680  and  _681
REMARK  262  A    between atoms: _684  and  _686
REMARK  263  A    between atoms: _686  and  _687
REMARK  264  A    between atoms: _686  and  _689
REMARK  265  A    between atoms: _689  and  _690
REMARK                            x       y       z     vdW  Elec       q    Type
REMARK                         _______ _______ _______ _____ _____    ______ ____
ROOT
ATOM      1  O   HOH     1      -5.378  16.581  14.094  0.00  0.00    +0.000 OA
ENDROOT
TORSDOF 0
REMARK  Name = ../refined-set-2016/1b2h/1b2h_pocket.pdb
REMARK  265 active torsions:
REMARK  status: ('A' for Active; 'I' for Inactive)
REMARK    1  A    between atoms: _1  and  _3
REMARK    2  A    between atoms: _3  and  _4
REMARK    3  A    between atoms: _3  and  _6
REMARK    4  A    between atoms: _6  and  _7
REMARK    5  A    between atoms: _12  and  _14
REMARK    6  A    between atoms: _14  and  _15
REMARK    7  A    between atoms: _17  and  _19
REMARK    8  A    between atoms: _19  and  _20
REMARK    9  A    between atoms: _19  and  _22
REMARK   10  A    between atoms: _22  and  _23
REMARK   11  A    between atoms: _25  and  _27
REMARK   12  A    between atoms: _27  and  _28
REMARK   13  A    between atoms: _27  and  _30
REMARK   14  A    between atoms: _30  and  _31
REMARK   15  A    between atoms: _31  and  _32
REMARK   16  A    between atoms: _37  and  _39
REMARK   17  A    between atoms: _39  and  _40
REMARK   18  A    between atoms: _39  and  _42
REMARK   19  A    between atoms: _42  and  _43
REMARK   20  A    between atoms: _46  and  _48
REMARK   21  A    between atoms: _48  and  _49
REMARK   22  A    between atoms: _48  and  _51
REMARK   23  A    between atoms: _52  and  _53
REMARK   24  A    between atoms: _56  and  _58
REMARK   25  A    between atoms: _58  and  _59
REMARK   26  A    between atoms: _61  and  _63
REMARK   27  A    between atoms: _63  and  _64
REMARK   28  A    between atoms: _63  and  _66
REMARK   29  A    between atoms: _70  and  _71
REMARK   30  A    between atoms: _76  and  _78
REMARK   31  A    between atoms: _78  and  _79
REMARK   32  A    between atoms: _78  and  _81
REMARK   33  A    between atoms: _81  and  _82
REMARK   34  A    between atoms: _82  and  _83
REMARK   35  A    between atoms: _86  and  _88
REMARK   36  A    between atoms: _88  and  _89
REMARK   37  A    between atoms: _88  and  _91
REMARK   38  A    between atoms: _91  and  _92
REMARK   39  A    between atoms: _94  and  _96
REMARK   40  A    between atoms: _96  and  _97
REMARK   41  A    between atoms: _96  and  _99
REMARK   42  A    between atoms: _99  and  _100
REMARK   43  A    between atoms: _105  and  _107
REMARK   44  A    between atoms: _107  and  _108
REMARK   45  A    between atoms: _107  and  _110
REMARK   46  A    between atoms: _110  and  _111
REMARK   47  A    between atoms: _111  and  _112
REMARK   48  A    between atoms: _112  and  _113
REMARK   49  A    between atoms: _123  and  _124
REMARK   50  A    between atoms: _129  and  _131
REMARK   51  A    between atoms: _131  and  _132
REMARK   52  A    between atoms: _131  and  _134
REMARK   53  A    between atoms: _134  and  _135
REMARK   54  A    between atoms: _140  and  _141
REMARK   55  A    between atoms: _143  and  _145
REMARK   56  A    between atoms: _145  and  _146
REMARK   57  A    between atoms: _145  and  _148
REMARK   58  A    between atoms: _148  and  _149
REMARK   59  A    between atoms: _154  and  _155
REMARK   60  A    between atoms: _157  and  _159
REMARK   61  A    between atoms: _159  and  _160
REMARK   62  A    between atoms: _159  and  _162
REMARK   63  A    between atoms: _165  and  _167
REMARK   64  A    between atoms: _167  and  _168
REMARK   65  A    between atoms: _167  and  _170
REMARK   66  A    between atoms: _170  and  _171
REMARK   67  A    between atoms: _177  and  _178
REMARK   68  A    between atoms: _183  and  _185
REMARK   69  A    between atoms: _185  and  _186
REMARK   70  A    between atoms: _185  and  _188
REMARK   71  A    between atoms: _188  and  _189
REMARK   72  A    between atoms: _191  and  _193
REMARK   73  A    between atoms: _193  and  _194
REMARK   74  A    between atoms: _193  and  _196
REMARK   75  A    between atoms: _196  and  _197
REMARK   76  A    between atoms: _197  and  _198
REMARK   77  A    between atoms: _201  and  _203
REMARK   78  A    between atoms: _203  and  _204
REMARK   79  A    between atoms: _203  and  _206
REMARK   80  A    between atoms: _206  and  _207
REMARK   81  A    between atoms: _212  and  _213
REMARK   82  A    between atoms: _215  and  _217
REMARK   83  A    between atoms: _217  and  _218
REMARK   84  A    between atoms: _217  and  _220
REMARK   85  A    between atoms: _220  and  _221
REMARK   86  A    between atoms: _226  and  _228
REMARK   87  A    between atoms: _228  and  _229
REMARK   88  A    between atoms: _228  and  _231
REMARK   89  A    between atoms: _231  and  _232
REMARK   90  A    between atoms: _237  and  _239
REMARK   91  A    between atoms: _239  and  _240
REMARK   92  A    between atoms: _239  and  _242
REMARK   93  A    between atoms: _242  and  _243
REMARK   94  A    between atoms: _243  and  _244
REMARK   95  A    between atoms: _246  and  _248
REMARK   96  A    between atoms: _248  and  _249
REMARK   97  A    between atoms: _248  and  _251
REMARK   98  A    between atoms: _251  and  _252
REMARK   99  A    between atoms: _257  and  _258
REMARK  100  A    between atoms: _260  and  _262
REMARK  101  A    between atoms: _262  and  _263
REMARK  102  A    between atoms: _262  and  _265
REMARK  103  A    between atoms: _265  and  _266
REMARK  104  A    between atoms: _269  and  _271
REMARK  105  A    between atoms: _271  and  _272
REMARK  106  A    between atoms: _271  and  _274
REMARK  107  A    between atoms: _274  and  _275
REMARK  108  A    between atoms: _275  and  _492
REMARK  109  A    between atoms: _276  and  _278
REMARK  110  A    between atoms: _278  and  _279
REMARK  111  A    between atoms: _278  and  _281
REMARK  112  A    between atoms: _281  and  _282
REMARK  113  A    between atoms: _285  and  _287
REMARK  114  A    between atoms: _287  and  _288
REMARK  115  A    between atoms: _287  and  _290
REMARK  116  A    between atoms: _290  and  _291
REMARK  117  A    between atoms: _296  and  _297
REMARK  118  A    between atoms: _299  and  _301
REMARK  119  A    between atoms: _301  and  _302
REMARK  120  A    between atoms: _301  and  _304
REMARK  121  A    between atoms: _304  and  _305
REMARK  122  A    between atoms: _310  and  _311
REMARK  123  A    between atoms: _313  and  _315
REMARK  124  A    between atoms: _315  and  _316
REMARK  125  A    between atoms: _315  and  _318
REMARK  126  A    between atoms: _318  and  _319
REMARK  127  A    between atoms: _319  and  _320
REMARK  128  A    between atoms: _323  and  _325
REMARK  129  A    between atoms: _325  and  _326
REMARK  130  A    between atoms: _325  and  _328
REMARK  131  A    between atoms: _328  and  _329
REMARK  132  A    between atoms: _334  and  _335
REMARK  133  A    between atoms: _337  and  _339
REMARK  134  A    between atoms: _339  and  _340
REMARK  135  A    between atoms: _339  and  _342
REMARK  136  A    between atoms: _342  and  _343
REMARK  137  A    between atoms: _348  and  _350
REMARK  138  A    between atoms: _350  and  _351
REMARK  139  A    between atoms: _350  and  _353
REMARK  140  A    between atoms: _353  and  _354
REMARK  141  A    between atoms: _357  and  _359
REMARK  142  A    between atoms: _359  and  _360
REMARK  143  A    between atoms: _359  and  _362
REMARK  144  A    between atoms: _362  and  _363
REMARK  145  A    between atoms: _368  and  _370
REMARK  146  A    between atoms: _370  and  _371
REMARK  147  A    between atoms: _370  and  _373
REMARK  148  A    between atoms: _373  and  _374
REMARK  149  A    between atoms: _384  and  _386
REMARK  150  A    between atoms: _386  and  _387
REMARK  151  A    between atoms: _386  and  _389
REMARK  152  A    between atoms: _389  and  _390
REMARK  153  A    between atoms: _396  and  _398
REMARK  154  A    between atoms: _398  and  _399
REMARK  155  A    between atoms: _398  and  _401
REMARK  156  A    between atoms: _401  and  _402
REMARK  157  A    between atoms: _405  and  _407
REMARK  158  A    between atoms: _407  and  _408
REMARK  159  A    between atoms: _407  and  _410
REMARK  160  A    between atoms: _410  and  _411
REMARK  161  A    between atoms: _414  and  _416
REMARK  162  A    between atoms: _416  and  _417
REMARK  163  A    between atoms: _416  and  _419
REMARK  164  A    between atoms: _419  and  _420
REMARK  165  A    between atoms: _420  and  _421
REMARK  166  A    between atoms: _421  and  _422
REMARK  167  A    between atoms: _431  and  _433
REMARK  168  A    between atoms: _433  and  _434
REMARK  169  A    between atoms: _433  and  _436
REMARK  170  A    between atoms: _436  and  _437
REMARK  171  A    between atoms: _442  and  _444
REMARK  172  A    between atoms: _444  and  _445
REMARK  173  A    between atoms: _444  and  _447
REMARK  174  A    between atoms: _447  and  _448
REMARK  175  A    between atoms: _449  and  _450
REMARK  176  A    between atoms: _459  and  _461
REMARK  177  A    between atoms: _461  and  _462
REMARK  178  A    between atoms: _465  and  _467
REMARK  179  A    between atoms: _467  and  _468
REMARK  180  A    between atoms: _470  and  _472
REMARK  181  A    between atoms: _472  and  _473
REMARK  182  A    between atoms: _472  and  _475
REMARK  183  A    between atoms: _475  and  _476
REMARK  184  A    between atoms: _486  and  _488
REMARK  185  A    between atoms: _488  and  _489
REMARK  186  A    between atoms: _488  and  _491
REMARK  187  A    between atoms: _491  and  _492
REMARK  188  A    between atoms: _493  and  _495
REMARK  189  A    between atoms: _495  and  _496
REMARK  190  A    between atoms: _499  and  _501
REMARK  191  A    between atoms: _501  and  _502
REMARK  192  A    between atoms: _501  and  _504
REMARK  193  A    between atoms: _504  and  _505
REMARK  194  A    between atoms: _508  and  _510
REMARK  195  A    between atoms: _510  and  _511
REMARK  196  A    between atoms: _510  and  _513
REMARK  197  A    between atoms: _513  and  _514
REMARK  198  A    between atoms: _519  and  _520
REMARK  199  A    between atoms: _522  and  _524
REMARK  200  A    between atoms: _524  and  _525
REMARK  201  A    between atoms: _524  and  _527
REMARK  202  A    between atoms: _527  and  _528
REMARK  203  A    between atoms: _530  and  _532
REMARK  204  A    between atoms: _532  and  _533
REMARK  205  A    between atoms: _532  and  _535
REMARK  206  A    between atoms: _535  and  _536
REMARK  207  A    between atoms: _542  and  _544
REMARK  208  A    between atoms: _544  and  _545
REMARK  209  A    between atoms: _544  and  _547
REMARK  210  A    between atoms: _547  and  _548
REMARK  211  A    between atoms: _551  and  _553
REMARK  212  A    between atoms: _553  and  _554
REMARK  213  A    between atoms: _553  and  _556
REMARK  214  A    between atoms: _556  and  _557
REMARK  215  A    between atoms: _559  and  _561
REMARK  216  A    between atoms: _561  and  _562
REMARK  217  A    between atoms: _561  and  _564
REMARK  218  A    between atoms: _564  and  _565
REMARK  219  A    between atoms: _570  and  _572
REMARK  220  A    between atoms: _572  and  _573
REMARK  221  A    between atoms: _572  and  _575
REMARK  222  A    between atoms: _575  and  _576
REMARK  223  A    between atoms: _581  and  _583
REMARK  224  A    between atoms: _583  and  _584
REMARK  225  A    between atoms: _583  and  _586
REMARK  226  A    between atoms: _586  and  _587
REMARK  227  A    between atoms: _590  and  _592
REMARK  228  A    between atoms: _592  and  _593
REMARK  229  A    between atoms: _596  and  _598
REMARK  230  A    between atoms: _598  and  _599
REMARK  231  A    between atoms: _598  and  _601
REMARK  232  A    between atoms: _601  and  _602
REMARK  233  A    between atoms: _607  and  _608
REMARK  234  A    between atoms: _610  and  _612
REMARK  235  A    between atoms: _612  and  _613
REMARK  236  A    between atoms: _612  and  _615
REMARK  237  A    between atoms: _615  and  _616
REMARK  238  A    between atoms: _621  and  _622
REMARK  239  A    between atoms: _624  and  _626
REMARK  240  A    between atoms: _626  and  _627
REMARK  241  A    between atoms: _626  and  _629
REMARK  242  A    between atoms: _632  and  _634
REMARK  243  A    between atoms: _634  and  _635
REMARK  244  A    between atoms: _634  and  _637
REMARK  245  A    between atoms: _637  and  _638
REMARK  246  A    between atoms: _643  and  _645
REMARK  247  A    between atoms: _645  and  _646
REMARK  248  A    between atoms: _649  and  _651
REMARK  249  A    between atoms: _651  and  _652
REMARK  250  A    between atoms: _651  and  _654
REMARK  251  A    between atoms: _654  and  _655
REMARK  252  A    between atoms: _655  and  _656
REMARK  253  A    between atoms: _656  and  _657
REMARK  254  A    between atoms: _666  and  _668
REMARK  255  A    between atoms: _668  and  _669
REMARK  256  A    between atoms: _668  and  _671
REMARK  257  A    between atoms: _671  and  _672
REMARK  258  A    between atoms: _675  and  _677
REMARK  259  A    between atoms: _677  and  _678
REMARK  260  A    between atoms: _677  and  _680
REMARK  261  A    between atoms: _680  and  _681
REMARK  262  A    between atoms: _684  and  _686
REMARK  263  A    between atoms: _686  and  _687
REMARK  264  A    between atoms: _686  and  _689
REMARK  265  A    between atoms: _689  and  _690
REMARK                            x       y       z     vdW  Elec       q    Type
REMARK                         _______ _______ _______ _____ _____    ______ ____
ROOT
ATOM      1  O   HOH     1      -7.154  16.648  17.855  0.00  0.00    +0.000 OA
ENDROOT
TORSDOF 0
REMARK  Name = ../refined-set-2016/1b2h/1b2h_pocket.pdb
REMARK  265 active torsions:
REMARK  status: ('A' for Active; 'I' for Inactive)
REMARK    1  A    between atoms: _1  and  _3
REMARK    2  A    between atoms: _3  and  _4
REMARK    3  A    between atoms: _3  and  _6
REMARK    4  A    between atoms: _6  and  _7
REMARK    5  A    between atoms: _12  and  _14
REMARK    6  A    between atoms: _14  and  _15
REMARK    7  A    between atoms: _17  and  _19
REMARK    8  A    between atoms: _19  and  _20
REMARK    9  A    between atoms: _19  and  _22
REMARK   10  A    between atoms: _22  and  _23
REMARK   11  A    between atoms: _25  and  _27
REMARK   12  A    between atoms: _27  and  _28
REMARK   13  A    between atoms: _27  and  _30
REMARK   14  A    between atoms: _30  and  _31
REMARK   15  A    between atoms: _31  and  _32
REMARK   16  A    between atoms: _37  and  _39
REMARK   17  A    between atoms: _39  and  _40
REMARK   18  A    between atoms: _39  and  _42
REMARK   19  A    between atoms: _42  and  _43
REMARK   20  A    between atoms: _46  and  _48
REMARK   21  A    between atoms: _48  and  _49
REMARK   22  A    between atoms: _48  and  _51
REMARK   23  A    between atoms: _52  and  _53
REMARK   24  A    between atoms: _56  and  _58
REMARK   25  A    between atoms: _58  and  _59
REMARK   26  A    between atoms: _61  and  _63
REMARK   27  A    between atoms: _63  and  _64
REMARK   28  A    between atoms: _63  and  _66
REMARK   29  A    between atoms: _70  and  _71
REMARK   30  A    between atoms: _76  and  _78
REMARK   31  A    between atoms: _78  and  _79
REMARK   32  A    between atoms: _78  and  _81
REMARK   33  A    between atoms: _81  and  _82
REMARK   34  A    between atoms: _82  and  _83
REMARK   35  A    between atoms: _86  and  _88
REMARK   36  A    between atoms: _88  and  _89
REMARK   37  A    between atoms: _88  and  _91
REMARK   38  A    between atoms: _91  and  _92
REMARK   39  A    between atoms: _94  and  _96
REMARK   40  A    between atoms: _96  and  _97
REMARK   41  A    between atoms: _96  and  _99
REMARK   42  A    between atoms: _99  and  _100
REMARK   43  A    between atoms: _105  and  _107
REMARK   44  A    between atoms: _107  and  _108
REMARK   45  A    between atoms: _107  and  _110
REMARK   46  A    between atoms: _110  and  _111
REMARK   47  A    between atoms: _111  and  _112
REMARK   48  A    between atoms: _112  and  _113
REMARK   49  A    between atoms: _123  and  _124
REMARK   50  A    between atoms: _129  and  _131
REMARK   51  A    between atoms: _131  and  _132
REMARK   52  A    between atoms: _131  and  _134
REMARK   53  A    between atoms: _134  and  _135
REMARK   54  A    between atoms: _140  and  _141
REMARK   55  A    between atoms: _143  and  _145
REMARK   56  A    between atoms: _145  and  _146
REMARK   57  A    between atoms: _145  and  _148
REMARK   58  A    between atoms: _148  and  _149
REMARK   59  A    between atoms: _154  and  _155
REMARK   60  A    between atoms: _157  and  _159
REMARK   61  A    between atoms: _159  and  _160
REMARK   62  A    between atoms: _159  and  _162
REMARK   63  A    between atoms: _165  and  _167
REMARK   64  A    between atoms: _167  and  _168
REMARK   65  A    between atoms: _167  and  _170
REMARK   66  A    between atoms: _170  and  _171
REMARK   67  A    between atoms: _177  and  _178
REMARK   68  A    between atoms: _183  and  _185
REMARK   69  A    between atoms: _185  and  _186
REMARK   70  A    between atoms: _185  and  _188
REMARK   71  A    between atoms: _188  and  _189
REMARK   72  A    between atoms: _191  and  _193
REMARK   73  A    between atoms: _193  and  _194
REMARK   74  A    between atoms: _193  and  _196
REMARK   75  A    between atoms: _196  and  _197
REMARK   76  A    between atoms: _197  and  _198
REMARK   77  A    between atoms: _201  and  _203
REMARK   78  A    between atoms: _203  and  _204
REMARK   79  A    between atoms: _203  and  _206
REMARK   80  A    between atoms: _206  and  _207
REMARK   81  A    between atoms: _212  and  _213
REMARK   82  A    between atoms: _215  and  _217
REMARK   83  A    between atoms: _217  and  _218
REMARK   84  A    between atoms: _217  and  _220
REMARK   85  A    between atoms: _220  and  _221
REMARK   86  A    between atoms: _226  and  _228
REMARK   87  A    between atoms: _228  and  _229
REMARK   88  A    between atoms: _228  and  _231
REMARK   89  A    between atoms: _231  and  _232
REMARK   90  A    between atoms: _237  and  _239
REMARK   91  A    between atoms: _239  and  _240
REMARK   92  A    between atoms: _239  and  _242
REMARK   93  A    between atoms: _242  and  _243
REMARK   94  A    between atoms: _243  and  _244
REMARK   95  A    between atoms: _246  and  _248
REMARK   96  A    between atoms: _248  and  _249
REMARK   97  A    between atoms: _248  and  _251
REMARK   98  A    between atoms: _251  and  _252
REMARK   99  A    between atoms: _257  and  _258
REMARK  100  A    between atoms: _260  and  _262
REMARK  101  A    between atoms: _262  and  _263
REMARK  102  A    between atoms: _262  and  _265
REMARK  103  A    between atoms: _265  and  _266
REMARK  104  A    between atoms: _269  and  _271
REMARK  105  A    between atoms: _271  and  _272
REMARK  106  A    between atoms: _271  and  _274
REMARK  107  A    between atoms: _274  and  _275
REMARK  108  A    between atoms: _275  and  _492
REMARK  109  A    between atoms: _276  and  _278
REMARK  110  A    between atoms: _278  and  _279
REMARK  111  A    between atoms: _278  and  _281
REMARK  112  A    between atoms: _281  and  _282
REMARK  113  A    between atoms: _285  and  _287
REMARK  114  A    between atoms: _287  and  _288
REMARK  115  A    between atoms: _287  and  _290
REMARK  116  A    between atoms: _290  and  _291
REMARK  117  A    between atoms: _296  and  _297
REMARK  118  A    between atoms: _299  and  _301
REMARK  119  A    between atoms: _301  and  _302
REMARK  120  A    between atoms: _301  and  _304
REMARK  121  A    between atoms: _304  and  _305
REMARK  122  A    between atoms: _310  and  _311
REMARK  123  A    between atoms: _313  and  _315
REMARK  124  A    between atoms: _315  and  _316
REMARK  125  A    between atoms: _315  and  _318
REMARK  126  A    between atoms: _318  and  _319
REMARK  127  A    between atoms: _319  and  _320
REMARK  128  A    between atoms: _323  and  _325
REMARK  129  A    between atoms: _325  and  _326
REMARK  130  A    between atoms: _325  and  _328
REMARK  131  A    between atoms: _328  and  _329
REMARK  132  A    between atoms: _334  and  _335
REMARK  133  A    between atoms: _337  and  _339
REMARK  134  A    between atoms: _339  and  _340
REMARK  135  A    between atoms: _339  and  _342
REMARK  136  A    between atoms: _342  and  _343
REMARK  137  A    between atoms: _348  and  _350
REMARK  138  A    between atoms: _350  and  _351
REMARK  139  A    between atoms: _350  and  _353
REMARK  140  A    between atoms: _353  and  _354
REMARK  141  A    between atoms: _357  and  _359
REMARK  142  A    between atoms: _359  and  _360
REMARK  143  A    between atoms: _359  and  _362
REMARK  144  A    between atoms: _362  and  _363
REMARK  145  A    between atoms: _368  and  _370
REMARK  146  A    between atoms: _370  and  _371
REMARK  147  A    between atoms: _370  and  _373
REMARK  148  A    between atoms: _373  and  _374
REMARK  149  A    between atoms: _384  and  _386
REMARK  150  A    between atoms: _386  and  _387
REMARK  151  A    between atoms: _386  and  _389
REMARK  152  A    between atoms: _389  and  _390
REMARK  153  A    between atoms: _396  and  _398
REMARK  154  A    between atoms: _398  and  _399
REMARK  155  A    between atoms: _398  and  _401
REMARK  156  A    between atoms: _401  and  _402
REMARK  157  A    between atoms: _405  and  _407
REMARK  158  A    between atoms: _407  and  _408
REMARK  159  A    between atoms: _407  and  _410
REMARK  160  A    between atoms: _410  and  _411
REMARK  161  A    between atoms: _414  and  _416
REMARK  162  A    between atoms: _416  and  _417
REMARK  163  A    between atoms: _416  and  _419
REMARK  164  A    between atoms: _419  and  _420
REMARK  165  A    between atoms: _420  and  _421
REMARK  166  A    between atoms: _421  and  _422
REMARK  167  A    between atoms: _431  and  _433
REMARK  168  A    between atoms: _433  and  _434
REMARK  169  A    between atoms: _433  and  _436
REMARK  170  A    between atoms: _436  and  _437
REMARK  171  A    between atoms: _442  and  _444
REMARK  172  A    between atoms: _444  and  _445
REMARK  173  A    between atoms: _444  and  _447
REMARK  174  A    between atoms: _447  and  _448
REMARK  175  A    between atoms: _449  and  _450
REMARK  176  A    between atoms: _459  and  _461
REMARK  177  A    between atoms: _461  and  _462
REMARK  178  A    between atoms: _465  and  _467
REMARK  179  A    between atoms: _467  and  _468
REMARK  180  A    between atoms: _470  and  _472
REMARK  181  A    between atoms: _472  and  _473
REMARK  182  A    between atoms: _472  and  _475
REMARK  183  A    between atoms: _475  and  _476
REMARK  184  A    between atoms: _486  and  _488
REMARK  185  A    between atoms: _488  and  _489
REMARK  186  A    between atoms: _488  and  _491
REMARK  187  A    between atoms: _491  and  _492
REMARK  188  A    between atoms: _493  and  _495
REMARK  189  A    between atoms: _495  and  _496
REMARK  190  A    between atoms: _499  and  _501
REMARK  191  A    between atoms: _501  and  _502
REMARK  192  A    between atoms: _501  and  _504
REMARK  193  A    between atoms: _504  and  _505
REMARK  194  A    between atoms: _508  and  _510
REMARK  195  A    between atoms: _510  and  _511
REMARK  196  A    between atoms: _510  and  _513
REMARK  197  A    between atoms: _513  and  _514
REMARK  198  A    between atoms: _519  and  _520
REMARK  199  A    between atoms: _522  and  _524
REMARK  200  A    between atoms: _524  and  _525
REMARK  201  A    between atoms: _524  and  _527
REMARK  202  A    between atoms: _527  and  _528
REMARK  203  A    between atoms: _530  and  _532
REMARK  204  A    between atoms: _532  and  _533
REMARK  205  A    between atoms: _532  and  _535
REMARK  206  A    between atoms: _535  and  _536
REMARK  207  A    between atoms: _542  and  _544
REMARK  208  A    between atoms: _544  and  _545
REMARK  209  A    between atoms: _544  and  _547
REMARK  210  A    between atoms: _547  and  _548
REMARK  211  A    between atoms: _551  and  _553
REMARK  212  A    between atoms: _553  and  _554
REMARK  213  A    between atoms: _553  and  _556
REMARK  214  A    between atoms: _556  and  _557
REMARK  215  A    between atoms: _559  and  _561
REMARK  216  A    between atoms: _561  and  _562
REMARK  217  A    between atoms: _561  and  _564
REMARK  218  A    between atoms: _564  and  _565
REMARK  219  A    between atoms: _570  and  _572
REMARK  220  A    between atoms: _572  and  _573
REMARK  221  A    between atoms: _572  and  _575
REMARK  222  A    between atoms: _575  and  _576
REMARK  223  A    between atoms: _581  and  _583
REMARK  224  A    between atoms: _583  and  _584
REMARK  225  A    between atoms: _583  and  _586
REMARK  226  A    between atoms: _586  and  _587
REMARK  227  A    between atoms: _590  and  _592
REMARK  228  A    between atoms: _592  and  _593
REMARK  229  A    between atoms: _596  and  _598
REMARK  230  A    between atoms: _598  and  _599
REMARK  231  A    between atoms: _598  and  _601
REMARK  232  A    between atoms: _601  and  _602
REMARK  233  A    between atoms: _607  and  _608
REMARK  234  A    between atoms: _610  and  _612
REMARK  235  A    between atoms: _612  and  _613
REMARK  236  A    between atoms: _612  and  _615
REMARK  237  A    between atoms: _615  and  _616
REMARK  238  A    between atoms: _621  and  _622
REMARK  239  A    between atoms: _624  and  _626
REMARK  240  A    between atoms: _626  and  _627
REMARK  241  A    between atoms: _626  and  _629
REMARK  242  A    between atoms: _632  and  _634
REMARK  243  A    between atoms: _634  and  _635
REMARK  244  A    between atoms: _634  and  _637
REMARK  245  A    between atoms: _637  and  _638
REMARK  246  A    between atoms: _643  and  _645
REMARK  247  A    between atoms: _645  and  _646
REMARK  248  A    between atoms: _649  and  _651
REMARK  249  A    between atoms: _651  and  _652
REMARK  250  A    between atoms: _651  and  _654
REMARK  251  A    between atoms: _654  and  _655
REMARK  252  A    between atoms: _655  and  _656
REMARK  253  A    between atoms: _656  and  _657
REMARK  254  A    between atoms: _666  and  _668
REMARK  255  A    between atoms: _668  and  _669
REMARK  256  A    between atoms: _668  and  _671
REMARK  257  A    between atoms: _671  and  _672
REMARK  258  A    between atoms: _675  and  _677
REMARK  259  A    between atoms: _677  and  _678
REMARK  260  A    between atoms: _677  and  _680
REMARK  261  A    between atoms: _680  and  _681
REMARK  262  A    between atoms: _684  and  _686
REMARK  263  A    between atoms: _686  and  _687
REMARK  264  A    between atoms: _686  and  _689
REMARK  265  A    between atoms: _689  and  _690
REMARK                            x       y       z     vdW  Elec       q    Type
REMARK                         _______ _______ _______ _____ _____    ______ ____
ROOT
ATOM      1  O   HOH     1      -3.396  18.049   5.654  0.00  0.00    +0.000 OA
ENDROOT
TORSDOF 0
REMARK  Name = ../refined-set-2016/1b2h/1b2h_pocket.pdb
REMARK  265 active torsions:
REMARK  status: ('A' for Active; 'I' for Inactive)
REMARK    1  A    between atoms: _1  and  _3
REMARK    2  A    between atoms: _3  and  _4
REMARK    3  A    between atoms: _3  and  _6
REMARK    4  A    between atoms: _6  and  _7
REMARK    5  A    between atoms: _12  and  _14
REMARK    6  A    between atoms: _14  and  _15
REMARK    7  A    between atoms: _17  and  _19
REMARK    8  A    between atoms: _19  and  _20
REMARK    9  A    between atoms: _19  and  _22
REMARK   10  A    between atoms: _22  and  _23
REMARK   11  A    between atoms: _25  and  _27
REMARK   12  A    between atoms: _27  and  _28
REMARK   13  A    between atoms: _27  and  _30
REMARK   14  A    between atoms: _30  and  _31
REMARK   15  A    between atoms: _31  and  _32
REMARK   16  A    between atoms: _37  and  _39
REMARK   17  A    between atoms: _39  and  _40
REMARK   18  A    between atoms: _39  and  _42
REMARK   19  A    between atoms: _42  and  _43
REMARK   20  A    between atoms: _46  and  _48
REMARK   21  A    between atoms: _48  and  _49
REMARK   22  A    between atoms: _48  and  _51
REMARK   23  A    between atoms: _52  and  _53
REMARK   24  A    between atoms: _56  and  _58
REMARK   25  A    between atoms: _58  and  _59
REMARK   26  A    between atoms: _61  and  _63
REMARK   27  A    between atoms: _63  and  _64
REMARK   28  A    between atoms: _63  and  _66
REMARK   29  A    between atoms: _70  and  _71
REMARK   30  A    between atoms: _76  and  _78
REMARK   31  A    between atoms: _78  and  _79
REMARK   32  A    between atoms: _78  and  _81
REMARK   33  A    between atoms: _81  and  _82
REMARK   34  A    between atoms: _82  and  _83
REMARK   35  A    between atoms: _86  and  _88
REMARK   36  A    between atoms: _88  and  _89
REMARK   37  A    between atoms: _88  and  _91
REMARK   38  A    between atoms: _91  and  _92
REMARK   39  A    between atoms: _94  and  _96
REMARK   40  A    between atoms: _96  and  _97
REMARK   41  A    between atoms: _96  and  _99
REMARK   42  A    between atoms: _99  and  _100
REMARK   43  A    between atoms: _105  and  _107
REMARK   44  A    between atoms: _107  and  _108
REMARK   45  A    between atoms: _107  and  _110
REMARK   46  A    between atoms: _110  and  _111
REMARK   47  A    between atoms: _111  and  _112
REMARK   48  A    between atoms: _112  and  _113
REMARK   49  A    between atoms: _123  and  _124
REMARK   50  A    between atoms: _129  and  _131
REMARK   51  A    between atoms: _131  and  _132
REMARK   52  A    between atoms: _131  and  _134
REMARK   53  A    between atoms: _134  and  _135
REMARK   54  A    between atoms: _140  and  _141
REMARK   55  A    between atoms: _143  and  _145
REMARK   56  A    between atoms: _145  and  _146
REMARK   57  A    between atoms: _145  and  _148
REMARK   58  A    between atoms: _148  and  _149
REMARK   59  A    between atoms: _154  and  _155
REMARK   60  A    between atoms: _157  and  _159
REMARK   61  A    between atoms: _159  and  _160
REMARK   62  A    between atoms: _159  and  _162
REMARK   63  A    between atoms: _165  and  _167
REMARK   64  A    between atoms: _167  and  _168
REMARK   65  A    between atoms: _167  and  _170
REMARK   66  A    between atoms: _170  and  _171
REMARK   67  A    between atoms: _177  and  _178
REMARK   68  A    between atoms: _183  and  _185
REMARK   69  A    between atoms: _185  and  _186
REMARK   70  A    between atoms: _185  and  _188
REMARK   71  A    between atoms: _188  and  _189
REMARK   72  A    between atoms: _191  and  _193
REMARK   73  A    between atoms: _193  and  _194
REMARK   74  A    between atoms: _193  and  _196
REMARK   75  A    between atoms: _196  and  _197
REMARK   76  A    between atoms: _197  and  _198
REMARK   77  A    between atoms: _201  and  _203
REMARK   78  A    between atoms: _203  and  _204
REMARK   79  A    between atoms: _203  and  _206
REMARK   80  A    between atoms: _206  and  _207
REMARK   81  A    between atoms: _212  and  _213
REMARK   82  A    between atoms: _215  and  _217
REMARK   83  A    between atoms: _217  and  _218
REMARK   84  A    between atoms: _217  and  _220
REMARK   85  A    between atoms: _220  and  _221
REMARK   86  A    between atoms: _226  and  _228
REMARK   87  A    between atoms: _228  and  _229
REMARK   88  A    between atoms: _228  and  _231
REMARK   89  A    between atoms: _231  and  _232
REMARK   90  A    between atoms: _237  and  _239
REMARK   91  A    between atoms: _239  and  _240
REMARK   92  A    between atoms: _239  and  _242
REMARK   93  A    between atoms: _242  and  _243
REMARK   94  A    between atoms: _243  and  _244
REMARK   95  A    between atoms: _246  and  _248
REMARK   96  A    between atoms: _248  and  _249
REMARK   97  A    between atoms: _248  and  _251
REMARK   98  A    between atoms: _251  and  _252
REMARK   99  A    between atoms: _257  and  _258
REMARK  100  A    between atoms: _260  and  _262
REMARK  101  A    between atoms: _262  and  _263
REMARK  102  A    between atoms: _262  and  _265
REMARK  103  A    between atoms: _265  and  _266
REMARK  104  A    between atoms: _269  and  _271
REMARK  105  A    between atoms: _271  and  _272
REMARK  106  A    between atoms: _271  and  _274
REMARK  107  A    between atoms: _274  and  _275
REMARK  108  A    between atoms: _275  and  _492
REMARK  109  A    between atoms: _276  and  _278
REMARK  110  A    between atoms: _278  and  _279
REMARK  111  A    between atoms: _278  and  _281
REMARK  112  A    between atoms: _281  and  _282
REMARK  113  A    between atoms: _285  and  _287
REMARK  114  A    between atoms: _287  and  _288
REMARK  115  A    between atoms: _287  and  _290
REMARK  116  A    between atoms: _290  and  _291
REMARK  117  A    between atoms: _296  and  _297
REMARK  118  A    between atoms: _299  and  _301
REMARK  119  A    between atoms: _301  and  _302
REMARK  120  A    between atoms: _301  and  _304
REMARK  121  A    between atoms: _304  and  _305
REMARK  122  A    between atoms: _310  and  _311
REMARK  123  A    between atoms: _313  and  _315
REMARK  124  A    between atoms: _315  and  _316
REMARK  125  A    between atoms: _315  and  _318
REMARK  126  A    between atoms: _318  and  _319
REMARK  127  A    between atoms: _319  and  _320
REMARK  128  A    between atoms: _323  and  _325
REMARK  129  A    between atoms: _325  and  _326
REMARK  130  A    between atoms: _325  and  _328
REMARK  131  A    between atoms: _328  and  _329
REMARK  132  A    between atoms: _334  and  _335
REMARK  133  A    between atoms: _337  and  _339
REMARK  134  A    between atoms: _339  and  _340
REMARK  135  A    between atoms: _339  and  _342
REMARK  136  A    between atoms: _342  and  _343
REMARK  137  A    between atoms: _348  and  _350
REMARK  138  A    between atoms: _350  and  _351
REMARK  139  A    between atoms: _350  and  _353
REMARK  140  A    between atoms: _353  and  _354
REMARK  141  A    between atoms: _357  and  _359
REMARK  142  A    between atoms: _359  and  _360
REMARK  143  A    between atoms: _359  and  _362
REMARK  144  A    between atoms: _362  and  _363
REMARK  145  A    between atoms: _368  and  _370
REMARK  146  A    between atoms: _370  and  _371
REMARK  147  A    between atoms: _370  and  _373
REMARK  148  A    between atoms: _373  and  _374
REMARK  149  A    between atoms: _384  and  _386
REMARK  150  A    between atoms: _386  and  _387
REMARK  151  A    between atoms: _386  and  _389
REMARK  152  A    between atoms: _389  and  _390
REMARK  153  A    between atoms: _396  and  _398
REMARK  154  A    between atoms: _398  and  _399
REMARK  155  A    between atoms: _398  and  _401
REMARK  156  A    between atoms: _401  and  _402
REMARK  157  A    between atoms: _405  and  _407
REMARK  158  A    between atoms: _407  and  _408
REMARK  159  A    between atoms: _407  and  _410
REMARK  160  A    between atoms: _410  and  _411
REMARK  161  A    between atoms: _414  and  _416
REMARK  162  A    between atoms: _416  and  _417
REMARK  163  A    between atoms: _416  and  _419
REMARK  164  A    between atoms: _419  and  _420
REMARK  165  A    between atoms: _420  and  _421
REMARK  166  A    between atoms: _421  and  _422
REMARK  167  A    between atoms: _431  and  _433
REMARK  168  A    between atoms: _433  and  _434
REMARK  169  A    between atoms: _433  and  _436
REMARK  170  A    between atoms: _436  and  _437
REMARK  171  A    between atoms: _442  and  _444
REMARK  172  A    between atoms: _444  and  _445
REMARK  173  A    between atoms: _444  and  _447
REMARK  174  A    between atoms: _447  and  _448
REMARK  175  A    between atoms: _449  and  _450
REMARK  176  A    between atoms: _459  and  _461
REMARK  177  A    between atoms: _461  and  _462
REMARK  178  A    between atoms: _465  and  _467
REMARK  179  A    between atoms: _467  and  _468
REMARK  180  A    between atoms: _470  and  _472
REMARK  181  A    between atoms: _472  and  _473
REMARK  182  A    between atoms: _472  and  _475
REMARK  183  A    between atoms: _475  and  _476
REMARK  184  A    between atoms: _486  and  _488
REMARK  185  A    between atoms: _488  and  _489
REMARK  186  A    between atoms: _488  and  _491
REMARK  187  A    between atoms: _491  and  _492
REMARK  188  A    between atoms: _493  and  _495
REMARK  189  A    between atoms: _495  and  _496
REMARK  190  A    between atoms: _499  and  _501
REMARK  191  A    between atoms: _501  and  _502
REMARK  192  A    between atoms: _501  and  _504
REMARK  193  A    between atoms: _504  and  _505
REMARK  194  A    between atoms: _508  and  _510
REMARK  195  A    between atoms: _510  and  _511
REMARK  196  A    between atoms: _510  and  _513
REMARK  197  A    between atoms: _513  and  _514
REMARK  198  A    between atoms: _519  and  _520
REMARK  199  A    between atoms: _522  and  _524
REMARK  200  A    between atoms: _524  and  _525
REMARK  201  A    between atoms: _524  and  _527
REMARK  202  A    between atoms: _527  and  _528
REMARK  203  A    between atoms: _530  and  _532
REMARK  204  A    between atoms: _532  and  _533
REMARK  205  A    between atoms: _532  and  _535
REMARK  206  A    between atoms: _535  and  _536
REMARK  207  A    between atoms: _542  and  _544
REMARK  208  A    between atoms: _544  and  _545
REMARK  209  A    between atoms: _544  and  _547
REMARK  210  A    between atoms: _547  and  _548
REMARK  211  A    between atoms: _551  and  _553
REMARK  212  A    between atoms: _553  and  _554
REMARK  213  A    between atoms: _553  and  _556
REMARK  214  A    between atoms: _556  and  _557
REMARK  215  A    between atoms: _559  and  _561
REMARK  216  A    between atoms: _561  and  _562
REMARK  217  A    between atoms: _561  and  _564
REMARK  218  A    between atoms: _564  and  _565
REMARK  219  A    between atoms: _570  and  _572
REMARK  220  A    between atoms: _572  and  _573
REMARK  221  A    between atoms: _572  and  _575
REMARK  222  A    between atoms: _575  and  _576
REMARK  223  A    between atoms: _581  and  _583
REMARK  224  A    between atoms: _583  and  _584
REMARK  225  A    between atoms: _583  and  _586
REMARK  226  A    between atoms: _586  and  _587
REMARK  227  A    between atoms: _590  and  _592
REMARK  228  A    between atoms: _592  and  _593
REMARK  229  A    between atoms: _596  and  _598
REMARK  230  A    between atoms: _598  and  _599
REMARK  231  A    between atoms: _598  and  _601
REMARK  232  A    between atoms: _601  and  _602
REMARK  233  A    between atoms: _607  and  _608
REMARK  234  A    between atoms: _610  and  _612
REMARK  235  A    between atoms: _612  and  _613
REMARK  236  A    between atoms: _612  and  _615
REMARK  237  A    between atoms: _615  and  _616
REMARK  238  A    between atoms: _621  and  _622
REMARK  239  A    between atoms: _624  and  _626
REMARK  240  A    between atoms: _626  and  _627
REMARK  241  A    between atoms: _626  and  _629
REMARK  242  A    between atoms: _632  and  _634
REMARK  243  A    between atoms: _634  and  _635
REMARK  244  A    between atoms: _634  and  _637
REMARK  245  A    between atoms: _637  and  _638
REMARK  246  A    between atoms: _643  and  _645
REMARK  247  A    between atoms: _645  and  _646
REMARK  248  A    between atoms: _649  and  _651
REMARK  249  A    between atoms: _651  and  _652
REMARK  250  A    between atoms: _651  and  _654
REMARK  251  A    between atoms: _654  and  _655
REMARK  252  A    between atoms: _655  and  _656
REMARK  253  A    between atoms: _656  and  _657
REMARK  254  A    between atoms: _666  and  _668
REMARK  255  A    between atoms: _668  and  _669
REMARK  256  A    between atoms: _668  and  _671
REMARK  257  A    between atoms: _671  and  _672
REMARK  258  A    between atoms: _675  and  _677
REMARK  259  A    between atoms: _677  and  _678
REMARK  260  A    between atoms: _677  and  _680
REMARK  261  A    between atoms: _680  and  _681
REMARK  262  A    between atoms: _684  and  _686
REMARK  263  A    between atoms: _686  and  _687
REMARK  264  A    between atoms: _686  and  _689
REMARK  265  A    between atoms: _689  and  _690
REMARK                            x       y       z     vdW  Elec       q    Type
REMARK                         _______ _______ _______ _____ _____    ______ ____
ROOT
ATOM      1  O   HOH     1       4.368  14.002   9.414  0.00  0.00    +0.000 OA
ENDROOT
TORSDOF 0
REMARK  Name = ../refined-set-2016/1b2h/1b2h_pocket.pdb
REMARK  265 active torsions:
REMARK  status: ('A' for Active; 'I' for Inactive)
REMARK    1  A    between atoms: _1  and  _3
REMARK    2  A    between atoms: _3  and  _4
REMARK    3  A    between atoms: _3  and  _6
REMARK    4  A    between atoms: _6  and  _7
REMARK    5  A    between atoms: _12  and  _14
REMARK    6  A    between atoms: _14  and  _15
REMARK    7  A    between atoms: _17  and  _19
REMARK    8  A    between atoms: _19  and  _20
REMARK    9  A    between atoms: _19  and  _22
REMARK   10  A    between atoms: _22  and  _23
REMARK   11  A    between atoms: _25  and  _27
REMARK   12  A    between atoms: _27  and  _28
REMARK   13  A    between atoms: _27  and  _30
REMARK   14  A    between atoms: _30  and  _31
REMARK   15  A    between atoms: _31  and  _32
REMARK   16  A    between atoms: _37  and  _39
REMARK   17  A    between atoms: _39  and  _40
REMARK   18  A    between atoms: _39  and  _42
REMARK   19  A    between atoms: _42  and  _43
REMARK   20  A    between atoms: _46  and  _48
REMARK   21  A    between atoms: _48  and  _49
REMARK   22  A    between atoms: _48  and  _51
REMARK   23  A    between atoms: _52  and  _53
REMARK   24  A    between atoms: _56  and  _58
REMARK   25  A    between atoms: _58  and  _59
REMARK   26  A    between atoms: _61  and  _63
REMARK   27  A    between atoms: _63  and  _64
REMARK   28  A    between atoms: _63  and  _66
REMARK   29  A    between atoms: _70  and  _71
REMARK   30  A    between atoms: _76  and  _78
REMARK   31  A    between atoms: _78  and  _79
REMARK   32  A    between atoms: _78  and  _81
REMARK   33  A    between atoms: _81  and  _82
REMARK   34  A    between atoms: _82  and  _83
REMARK   35  A    between atoms: _86  and  _88
REMARK   36  A    between atoms: _88  and  _89
REMARK   37  A    between atoms: _88  and  _91
REMARK   38  A    between atoms: _91  and  _92
REMARK   39  A    between atoms: _94  and  _96
REMARK   40  A    between atoms: _96  and  _97
REMARK   41  A    between atoms: _96  and  _99
REMARK   42  A    between atoms: _99  and  _100
REMARK   43  A    between atoms: _105  and  _107
REMARK   44  A    between atoms: _107  and  _108
REMARK   45  A    between atoms: _107  and  _110
REMARK   46  A    between atoms: _110  and  _111
REMARK   47  A    between atoms: _111  and  _112
REMARK   48  A    between atoms: _112  and  _113
REMARK   49  A    between atoms: _123  and  _124
REMARK   50  A    between atoms: _129  and  _131
REMARK   51  A    between atoms: _131  and  _132
REMARK   52  A    between atoms: _131  and  _134
REMARK   53  A    between atoms: _134  and  _135
REMARK   54  A    between atoms: _140  and  _141
REMARK   55  A    between atoms: _143  and  _145
REMARK   56  A    between atoms: _145  and  _146
REMARK   57  A    between atoms: _145  and  _148
REMARK   58  A    between atoms: _148  and  _149
REMARK   59  A    between atoms: _154  and  _155
REMARK   60  A    between atoms: _157  and  _159
REMARK   61  A    between atoms: _159  and  _160
REMARK   62  A    between atoms: _159  and  _162
REMARK   63  A    between atoms: _165  and  _167
REMARK   64  A    between atoms: _167  and  _168
REMARK   65  A    between atoms: _167  and  _170
REMARK   66  A    between atoms: _170  and  _171
REMARK   67  A    between atoms: _177  and  _178
REMARK   68  A    between atoms: _183  and  _185
REMARK   69  A    between atoms: _185  and  _186
REMARK   70  A    between atoms: _185  and  _188
REMARK   71  A    between atoms: _188  and  _189
REMARK   72  A    between atoms: _191  and  _193
REMARK   73  A    between atoms: _193  and  _194
REMARK   74  A    between atoms: _193  and  _196
REMARK   75  A    between atoms: _196  and  _197
REMARK   76  A    between atoms: _197  and  _198
REMARK   77  A    between atoms: _201  and  _203
REMARK   78  A    between atoms: _203  and  _204
REMARK   79  A    between atoms: _203  and  _206
REMARK   80  A    between atoms: _206  and  _207
REMARK   81  A    between atoms: _212  and  _213
REMARK   82  A    between atoms: _215  and  _217
REMARK   83  A    between atoms: _217  and  _218
REMARK   84  A    between atoms: _217  and  _220
REMARK   85  A    between atoms: _220  and  _221
REMARK   86  A    between atoms: _226  and  _228
REMARK   87  A    between atoms: _228  and  _229
REMARK   88  A    between atoms: _228  and  _231
REMARK   89  A    between atoms: _231  and  _232
REMARK   90  A    between atoms: _237  and  _239
REMARK   91  A    between atoms: _239  and  _240
REMARK   92  A    between atoms: _239  and  _242
REMARK   93  A    between atoms: _242  and  _243
REMARK   94  A    between atoms: _243  and  _244
REMARK   95  A    between atoms: _246  and  _248
REMARK   96  A    between atoms: _248  and  _249
REMARK   97  A    between atoms: _248  and  _251
REMARK   98  A    between atoms: _251  and  _252
REMARK   99  A    between atoms: _257  and  _258
REMARK  100  A    between atoms: _260  and  _262
REMARK  101  A    between atoms: _262  and  _263
REMARK  102  A    between atoms: _262  and  _265
REMARK  103  A    between atoms: _265  and  _266
REMARK  104  A    between atoms: _269  and  _271
REMARK  105  A    between atoms: _271  and  _272
REMARK  106  A    between atoms: _271  and  _274
REMARK  107  A    between atoms: _274  and  _275
REMARK  108  A    between atoms: _275  and  _492
REMARK  109  A    between atoms: _276  and  _278
REMARK  110  A    between atoms: _278  and  _279
REMARK  111  A    between atoms: _278  and  _281
REMARK  112  A    between atoms: _281  and  _282
REMARK  113  A    between atoms: _285  and  _287
REMARK  114  A    between atoms: _287  and  _288
REMARK  115  A    between atoms: _287  and  _290
REMARK  116  A    between atoms: _290  and  _291
REMARK  117  A    between atoms: _296  and  _297
REMARK  118  A    between atoms: _299  and  _301
REMARK  119  A    between atoms: _301  and  _302
REMARK  120  A    between atoms: _301  and  _304
REMARK  121  A    between atoms: _304  and  _305
REMARK  122  A    between atoms: _310  and  _311
REMARK  123  A    between atoms: _313  and  _315
REMARK  124  A    between atoms: _315  and  _316
REMARK  125  A    between atoms: _315  and  _318
REMARK  126  A    between atoms: _318  and  _319
REMARK  127  A    between atoms: _319  and  _320
REMARK  128  A    between atoms: _323  and  _325
REMARK  129  A    between atoms: _325  and  _326
REMARK  130  A    between atoms: _325  and  _328
REMARK  131  A    between atoms: _328  and  _329
REMARK  132  A    between atoms: _334  and  _335
REMARK  133  A    between atoms: _337  and  _339
REMARK  134  A    between atoms: _339  and  _340
REMARK  135  A    between atoms: _339  and  _342
REMARK  136  A    between atoms: _342  and  _343
REMARK  137  A    between atoms: _348  and  _350
REMARK  138  A    between atoms: _350  and  _351
REMARK  139  A    between atoms: _350  and  _353
REMARK  140  A    between atoms: _353  and  _354
REMARK  141  A    between atoms: _357  and  _359
REMARK  142  A    between atoms: _359  and  _360
REMARK  143  A    between atoms: _359  and  _362
REMARK  144  A    between atoms: _362  and  _363
REMARK  145  A    between atoms: _368  and  _370
REMARK  146  A    between atoms: _370  and  _371
REMARK  147  A    between atoms: _370  and  _373
REMARK  148  A    between atoms: _373  and  _374
REMARK  149  A    between atoms: _384  and  _386
REMARK  150  A    between atoms: _386  and  _387
REMARK  151  A    between atoms: _386  and  _389
REMARK  152  A    between atoms: _389  and  _390
REMARK  153  A    between atoms: _396  and  _398
REMARK  154  A    between atoms: _398  and  _399
REMARK  155  A    between atoms: _398  and  _401
REMARK  156  A    between atoms: _401  and  _402
REMARK  157  A    between atoms: _405  and  _407
REMARK  158  A    between atoms: _407  and  _408
REMARK  159  A    between atoms: _407  and  _410
REMARK  160  A    between atoms: _410  and  _411
REMARK  161  A    between atoms: _414  and  _416
REMARK  162  A    between atoms: _416  and  _417
REMARK  163  A    between atoms: _416  and  _419
REMARK  164  A    between atoms: _419  and  _420
REMARK  165  A    between atoms: _420  and  _421
REMARK  166  A    between atoms: _421  and  _422
REMARK  167  A    between atoms: _431  and  _433
REMARK  168  A    between atoms: _433  and  _434
REMARK  169  A    between atoms: _433  and  _436
REMARK  170  A    between atoms: _436  and  _437
REMARK  171  A    between atoms: _442  and  _444
REMARK  172  A    between atoms: _444  and  _445
REMARK  173  A    between atoms: _444  and  _447
REMARK  174  A    between atoms: _447  and  _448
REMARK  175  A    between atoms: _449  and  _450
REMARK  176  A    between atoms: _459  and  _461
REMARK  177  A    between atoms: _461  and  _462
REMARK  178  A    between atoms: _465  and  _467
REMARK  179  A    between atoms: _467  and  _468
REMARK  180  A    between atoms: _470  and  _472
REMARK  181  A    between atoms: _472  and  _473
REMARK  182  A    between atoms: _472  and  _475
REMARK  183  A    between atoms: _475  and  _476
REMARK  184  A    between atoms: _486  and  _488
REMARK  185  A    between atoms: _488  and  _489
REMARK  186  A    between atoms: _488  and  _491
REMARK  187  A    between atoms: _491  and  _492
REMARK  188  A    between atoms: _493  and  _495
REMARK  189  A    between atoms: _495  and  _496
REMARK  190  A    between atoms: _499  and  _501
REMARK  191  A    between atoms: _501  and  _502
REMARK  192  A    between atoms: _501  and  _504
REMARK  193  A    between atoms: _504  and  _505
REMARK  194  A    between atoms: _508  and  _510
REMARK  195  A    between atoms: _510  and  _511
REMARK  196  A    between atoms: _510  and  _513
REMARK  197  A    between atoms: _513  and  _514
REMARK  198  A    between atoms: _519  and  _520
REMARK  199  A    between atoms: _522  and  _524
REMARK  200  A    between atoms: _524  and  _525
REMARK  201  A    between atoms: _524  and  _527
REMARK  202  A    between atoms: _527  and  _528
REMARK  203  A    between atoms: _530  and  _532
REMARK  204  A    between atoms: _532  and  _533
REMARK  205  A    between atoms: _532  and  _535
REMARK  206  A    between atoms: _535  and  _536
REMARK  207  A    between atoms: _542  and  _544
REMARK  208  A    between atoms: _544  and  _545
REMARK  209  A    between atoms: _544  and  _547
REMARK  210  A    between atoms: _547  and  _548
REMARK  211  A    between atoms: _551  and  _553
REMARK  212  A    between atoms: _553  and  _554
REMARK  213  A    between atoms: _553  and  _556
REMARK  214  A    between atoms: _556  and  _557
REMARK  215  A    between atoms: _559  and  _561
REMARK  216  A    between atoms: _561  and  _562
REMARK  217  A    between atoms: _561  and  _564
REMARK  218  A    between atoms: _564  and  _565
REMARK  219  A    between atoms: _570  and  _572
REMARK  220  A    between atoms: _572  and  _573
REMARK  221  A    between atoms: _572  and  _575
REMARK  222  A    between atoms: _575  and  _576
REMARK  223  A    between atoms: _581  and  _583
REMARK  224  A    between atoms: _583  and  _584
REMARK  225  A    between atoms: _583  and  _586
REMARK  226  A    between atoms: _586  and  _587
REMARK  227  A    between atoms: _590  and  _592
REMARK  228  A    between atoms: _592  and  _593
REMARK  229  A    between atoms: _596  and  _598
REMARK  230  A    between atoms: _598  and  _599
REMARK  231  A    between atoms: _598  and  _601
REMARK  232  A    between atoms: _601  and  _602
REMARK  233  A    between atoms: _607  and  _608
REMARK  234  A    between atoms: _610  and  _612
REMARK  235  A    between atoms: _612  and  _613
REMARK  236  A    between atoms: _612  and  _615
REMARK  237  A    between atoms: _615  and  _616
REMARK  238  A    between atoms: _621  and  _622
REMARK  239  A    between atoms: _624  and  _626
REMARK  240  A    between atoms: _626  and  _627
REMARK  241  A    between atoms: _626  and  _629
REMARK  242  A    between atoms: _632  and  _634
REMARK  243  A    between atoms: _634  and  _635
REMARK  244  A    between atoms: _634  and  _637
REMARK  245  A    between atoms: _637  and  _638
REMARK  246  A    between atoms: _643  and  _645
REMARK  247  A    between atoms: _645  and  _646
REMARK  248  A    between atoms: _649  and  _651
REMARK  249  A    between atoms: _651  and  _652
REMARK  250  A    between atoms: _651  and  _654
REMARK  251  A    between atoms: _654  and  _655
REMARK  252  A    between atoms: _655  and  _656
REMARK  253  A    between atoms: _656  and  _657
REMARK  254  A    between atoms: _666  and  _668
REMARK  255  A    between atoms: _668  and  _669
REMARK  256  A    between atoms: _668  and  _671
REMARK  257  A    between atoms: _671  and  _672
REMARK  258  A    between atoms: _675  and  _677
REMARK  259  A    between atoms: _677  and  _678
REMARK  260  A    between atoms: _677  and  _680
REMARK  261  A    between atoms: _680  and  _681
REMARK  262  A    between atoms: _684  and  _686
REMARK  263  A    between atoms: _686  and  _687
REMARK  264  A    between atoms: _686  and  _689
REMARK  265  A    between atoms: _689  and  _690
REMARK                            x       y       z     vdW  Elec       q    Type
REMARK                         _______ _______ _______ _____ _____    ______ ____
ROOT
ATOM      1  O   HOH     1      12.165  26.680  23.398  0.00  0.00    +0.000 OA
ENDROOT
TORSDOF 0
REMARK  Name = ../refined-set-2016/1b2h/1b2h_pocket.pdb
REMARK  265 active torsions:
REMARK  status: ('A' for Active; 'I' for Inactive)
REMARK    1  A    between atoms: _1  and  _3
REMARK    2  A    between atoms: _3  and  _4
REMARK    3  A    between atoms: _3  and  _6
REMARK    4  A    between atoms: _6  and  _7
REMARK    5  A    between atoms: _12  and  _14
REMARK    6  A    between atoms: _14  and  _15
REMARK    7  A    between atoms: _17  and  _19
REMARK    8  A    between atoms: _19  and  _20
REMARK    9  A    between atoms: _19  and  _22
REMARK   10  A    between atoms: _22  and  _23
REMARK   11  A    between atoms: _25  and  _27
REMARK   12  A    between atoms: _27  and  _28
REMARK   13  A    between atoms: _27  and  _30
REMARK   14  A    between atoms: _30  and  _31
REMARK   15  A    between atoms: _31  and  _32
REMARK   16  A    between atoms: _37  and  _39
REMARK   17  A    between atoms: _39  and  _40
REMARK   18  A    between atoms: _39  and  _42
REMARK   19  A    between atoms: _42  and  _43
REMARK   20  A    between atoms: _46  and  _48
REMARK   21  A    between atoms: _48  and  _49
REMARK   22  A    between atoms: _48  and  _51
REMARK   23  A    between atoms: _52  and  _53
REMARK   24  A    between atoms: _56  and  _58
REMARK   25  A    between atoms: _58  and  _59
REMARK   26  A    between atoms: _61  and  _63
REMARK   27  A    between atoms: _63  and  _64
REMARK   28  A    between atoms: _63  and  _66
REMARK   29  A    between atoms: _70  and  _71
REMARK   30  A    between atoms: _76  and  _78
REMARK   31  A    between atoms: _78  and  _79
REMARK   32  A    between atoms: _78  and  _81
REMARK   33  A    between atoms: _81  and  _82
REMARK   34  A    between atoms: _82  and  _83
REMARK   35  A    between atoms: _86  and  _88
REMARK   36  A    between atoms: _88  and  _89
REMARK   37  A    between atoms: _88  and  _91
REMARK   38  A    between atoms: _91  and  _92
REMARK   39  A    between atoms: _94  and  _96
REMARK   40  A    between atoms: _96  and  _97
REMARK   41  A    between atoms: _96  and  _99
REMARK   42  A    between atoms: _99  and  _100
REMARK   43  A    between atoms: _105  and  _107
REMARK   44  A    between atoms: _107  and  _108
REMARK   45  A    between atoms: _107  and  _110
REMARK   46  A    between atoms: _110  and  _111
REMARK   47  A    between atoms: _111  and  _112
REMARK   48  A    between atoms: _112  and  _113
REMARK   49  A    between atoms: _123  and  _124
REMARK   50  A    between atoms: _129  and  _131
REMARK   51  A    between atoms: _131  and  _132
REMARK   52  A    between atoms: _131  and  _134
REMARK   53  A    between atoms: _134  and  _135
REMARK   54  A    between atoms: _140  and  _141
REMARK   55  A    between atoms: _143  and  _145
REMARK   56  A    between atoms: _145  and  _146
REMARK   57  A    between atoms: _145  and  _148
REMARK   58  A    between atoms: _148  and  _149
REMARK   59  A    between atoms: _154  and  _155
REMARK   60  A    between atoms: _157  and  _159
REMARK   61  A    between atoms: _159  and  _160
REMARK   62  A    between atoms: _159  and  _162
REMARK   63  A    between atoms: _165  and  _167
REMARK   64  A    between atoms: _167  and  _168
REMARK   65  A    between atoms: _167  and  _170
REMARK   66  A    between atoms: _170  and  _171
REMARK   67  A    between atoms: _177  and  _178
REMARK   68  A    between atoms: _183  and  _185
REMARK   69  A    between atoms: _185  and  _186
REMARK   70  A    between atoms: _185  and  _188
REMARK   71  A    between atoms: _188  and  _189
REMARK   72  A    between atoms: _191  and  _193
REMARK   73  A    between atoms: _193  and  _194
REMARK   74  A    between atoms: _193  and  _196
REMARK   75  A    between atoms: _196  and  _197
REMARK   76  A    between atoms: _197  and  _198
REMARK   77  A    between atoms: _201  and  _203
REMARK   78  A    between atoms: _203  and  _204
REMARK   79  A    between atoms: _203  and  _206
REMARK   80  A    between atoms: _206  and  _207
REMARK   81  A    between atoms: _212  and  _213
REMARK   82  A    between atoms: _215  and  _217
REMARK   83  A    between atoms: _217  and  _218
REMARK   84  A    between atoms: _217  and  _220
REMARK   85  A    between atoms: _220  and  _221
REMARK   86  A    between atoms: _226  and  _228
REMARK   87  A    between atoms: _228  and  _229
REMARK   88  A    between atoms: _228  and  _231
REMARK   89  A    between atoms: _231  and  _232
REMARK   90  A    between atoms: _237  and  _239
REMARK   91  A    between atoms: _239  and  _240
REMARK   92  A    between atoms: _239  and  _242
REMARK   93  A    between atoms: _242  and  _243
REMARK   94  A    between atoms: _243  and  _244
REMARK   95  A    between atoms: _246  and  _248
REMARK   96  A    between atoms: _248  and  _249
REMARK   97  A    between atoms: _248  and  _251
REMARK   98  A    between atoms: _251  and  _252
REMARK   99  A    between atoms: _257  and  _258
REMARK  100  A    between atoms: _260  and  _262
REMARK  101  A    between atoms: _262  and  _263
REMARK  102  A    between atoms: _262  and  _265
REMARK  103  A    between atoms: _265  and  _266
REMARK  104  A    between atoms: _269  and  _271
REMARK  105  A    between atoms: _271  and  _272
REMARK  106  A    between atoms: _271  and  _274
REMARK  107  A    between atoms: _274  and  _275
REMARK  108  A    between atoms: _275  and  _492
REMARK  109  A    between atoms: _276  and  _278
REMARK  110  A    between atoms: _278  and  _279
REMARK  111  A    between atoms: _278  and  _281
REMARK  112  A    between atoms: _281  and  _282
REMARK  113  A    between atoms: _285  and  _287
REMARK  114  A    between atoms: _287  and  _288
REMARK  115  A    between atoms: _287  and  _290
REMARK  116  A    between atoms: _290  and  _291
REMARK  117  A    between atoms: _296  and  _297
REMARK  118  A    between atoms: _299  and  _301
REMARK  119  A    between atoms: _301  and  _302
REMARK  120  A    between atoms: _301  and  _304
REMARK  121  A    between atoms: _304  and  _305
REMARK  122  A    between atoms: _310  and  _311
REMARK  123  A    between atoms: _313  and  _315
REMARK  124  A    between atoms: _315  and  _316
REMARK  125  A    between atoms: _315  and  _318
REMARK  126  A    between atoms: _318  and  _319
REMARK  127  A    between atoms: _319  and  _320
REMARK  128  A    between atoms: _323  and  _325
REMARK  129  A    between atoms: _325  and  _326
REMARK  130  A    between atoms: _325  and  _328
REMARK  131  A    between atoms: _328  and  _329
REMARK  132  A    between atoms: _334  and  _335
REMARK  133  A    between atoms: _337  and  _339
REMARK  134  A    between atoms: _339  and  _340
REMARK  135  A    between atoms: _339  and  _342
REMARK  136  A    between atoms: _342  and  _343
REMARK  137  A    between atoms: _348  and  _350
REMARK  138  A    between atoms: _350  and  _351
REMARK  139  A    between atoms: _350  and  _353
REMARK  140  A    between atoms: _353  and  _354
REMARK  141  A    between atoms: _357  and  _359
REMARK  142  A    between atoms: _359  and  _360
REMARK  143  A    between atoms: _359  and  _362
REMARK  144  A    between atoms: _362  and  _363
REMARK  145  A    between atoms: _368  and  _370
REMARK  146  A    between atoms: _370  and  _371
REMARK  147  A    between atoms: _370  and  _373
REMARK  148  A    between atoms: _373  and  _374
REMARK  149  A    between atoms: _384  and  _386
REMARK  150  A    between atoms: _386  and  _387
REMARK  151  A    between atoms: _386  and  _389
REMARK  152  A    between atoms: _389  and  _390
REMARK  153  A    between atoms: _396  and  _398
REMARK  154  A    between atoms: _398  and  _399
REMARK  155  A    between atoms: _398  and  _401
REMARK  156  A    between atoms: _401  and  _402
REMARK  157  A    between atoms: _405  and  _407
REMARK  158  A    between atoms: _407  and  _408
REMARK  159  A    between atoms: _407  and  _410
REMARK  160  A    between atoms: _410  and  _411
REMARK  161  A    between atoms: _414  and  _416
REMARK  162  A    between atoms: _416  and  _417
REMARK  163  A    between atoms: _416  and  _419
REMARK  164  A    between atoms: _419  and  _420
REMARK  165  A    between atoms: _420  and  _421
REMARK  166  A    between atoms: _421  and  _422
REMARK  167  A    between atoms: _431  and  _433
REMARK  168  A    between atoms: _433  and  _434
REMARK  169  A    between atoms: _433  and  _436
REMARK  170  A    between atoms: _436  and  _437
REMARK  171  A    between atoms: _442  and  _444
REMARK  172  A    between atoms: _444  and  _445
REMARK  173  A    between atoms: _444  and  _447
REMARK  174  A    between atoms: _447  and  _448
REMARK  175  A    between atoms: _449  and  _450
REMARK  176  A    between atoms: _459  and  _461
REMARK  177  A    between atoms: _461  and  _462
REMARK  178  A    between atoms: _465  and  _467
REMARK  179  A    between atoms: _467  and  _468
REMARK  180  A    between atoms: _470  and  _472
REMARK  181  A    between atoms: _472  and  _473
REMARK  182  A    between atoms: _472  and  _475
REMARK  183  A    between atoms: _475  and  _476
REMARK  184  A    between atoms: _486  and  _488
REMARK  185  A    between atoms: _488  and  _489
REMARK  186  A    between atoms: _488  and  _491
REMARK  187  A    between atoms: _491  and  _492
REMARK  188  A    between atoms: _493  and  _495
REMARK  189  A    between atoms: _495  and  _496
REMARK  190  A    between atoms: _499  and  _501
REMARK  191  A    between atoms: _501  and  _502
REMARK  192  A    between atoms: _501  and  _504
REMARK  193  A    between atoms: _504  and  _505
REMARK  194  A    between atoms: _508  and  _510
REMARK  195  A    between atoms: _510  and  _511
REMARK  196  A    between atoms: _510  and  _513
REMARK  197  A    between atoms: _513  and  _514
REMARK  198  A    between atoms: _519  and  _520
REMARK  199  A    between atoms: _522  and  _524
REMARK  200  A    between atoms: _524  and  _525
REMARK  201  A    between atoms: _524  and  _527
REMARK  202  A    between atoms: _527  and  _528
REMARK  203  A    between atoms: _530  and  _532
REMARK  204  A    between atoms: _532  and  _533
REMARK  205  A    between atoms: _532  and  _535
REMARK  206  A    between atoms: _535  and  _536
REMARK  207  A    between atoms: _542  and  _544
REMARK  208  A    between atoms: _544  and  _545
REMARK  209  A    between atoms: _544  and  _547
REMARK  210  A    between atoms: _547  and  _548
REMARK  211  A    between atoms: _551  and  _553
REMARK  212  A    between atoms: _553  and  _554
REMARK  213  A    between atoms: _553  and  _556
REMARK  214  A    between atoms: _556  and  _557
REMARK  215  A    between atoms: _559  and  _561
REMARK  216  A    between atoms: _561  and  _562
REMARK  217  A    between atoms: _561  and  _564
REMARK  218  A    between atoms: _564  and  _565
REMARK  219  A    between atoms: _570  and  _572
REMARK  220  A    between atoms: _572  and  _573
REMARK  221  A    between atoms: _572  and  _575
REMARK  222  A    between atoms: _575  and  _576
REMARK  223  A    between atoms: _581  and  _583
REMARK  224  A    between atoms: _583  and  _584
REMARK  225  A    between atoms: _583  and  _586
REMARK  226  A    between atoms: _586  and  _587
REMARK  227  A    between atoms: _590  and  _592
REMARK  228  A    between atoms: _592  and  _593
REMARK  229  A    between atoms: _596  and  _598
REMARK  230  A    between atoms: _598  and  _599
REMARK  231  A    between atoms: _598  and  _601
REMARK  232  A    between atoms: _601  and  _602
REMARK  233  A    between atoms: _607  and  _608
REMARK  234  A    between atoms: _610  and  _612
REMARK  235  A    between atoms: _612  and  _613
REMARK  236  A    between atoms: _612  and  _615
REMARK  237  A    between atoms: _615  and  _616
REMARK  238  A    between atoms: _621  and  _622
REMARK  239  A    between atoms: _624  and  _626
REMARK  240  A    between atoms: _626  and  _627
REMARK  241  A    between atoms: _626  and  _629
REMARK  242  A    between atoms: _632  and  _634
REMARK  243  A    between atoms: _634  and  _635
REMARK  244  A    between atoms: _634  and  _637
REMARK  245  A    between atoms: _637  and  _638
REMARK  246  A    between atoms: _643  and  _645
REMARK  247  A    between atoms: _645  and  _646
REMARK  248  A    between atoms: _649  and  _651
REMARK  249  A    between atoms: _651  and  _652
REMARK  250  A    between atoms: _651  and  _654
REMARK  251  A    between atoms: _654  and  _655
REMARK  252  A    between atoms: _655  and  _656
REMARK  253  A    between atoms: _656  and  _657
REMARK  254  A    between atoms: _666  and  _668
REMARK  255  A    between atoms: _668  and  _669
REMARK  256  A    between atoms: _668  and  _671
REMARK  257  A    between atoms: _671  and  _672
REMARK  258  A    between atoms: _675  and  _677
REMARK  259  A    between atoms: _677  and  _678
REMARK  260  A    between atoms: _677  and  _680
REMARK  261  A    between atoms: _680  and  _681
REMARK  262  A    between atoms: _684  and  _686
REMARK  263  A    between atoms: _686  and  _687
REMARK  264  A    between atoms: _686  and  _689
REMARK  265  A    between atoms: _689  and  _690
REMARK                            x       y       z     vdW  Elec       q    Type
REMARK                         _______ _______ _______ _____ _____    ______ ____
ROOT
ATOM      1  O   UNL     1       8.347  19.911  24.613  0.00  0.00    +0.000 OA
ATOM      2  O   UNL     1       8.378  20.196  25.617  0.00  0.00    +0.000 OA
ENDROOT
TORSDOF 0
REMARK  Name = ../refined-set-2016/1b2h/1b2h_pocket.pdb
REMARK  265 active torsions:
REMARK  status: ('A' for Active; 'I' for Inactive)
REMARK    1  A    between atoms: _1  and  _3
REMARK    2  A    between atoms: _3  and  _4
REMARK    3  A    between atoms: _3  and  _6
REMARK    4  A    between atoms: _6  and  _7
REMARK    5  A    between atoms: _12  and  _14
REMARK    6  A    between atoms: _14  and  _15
REMARK    7  A    between atoms: _17  and  _19
REMARK    8  A    between atoms: _19  and  _20
REMARK    9  A    between atoms: _19  and  _22
REMARK   10  A    between atoms: _22  and  _23
REMARK   11  A    between atoms: _25  and  _27
REMARK   12  A    between atoms: _27  and  _28
REMARK   13  A    between atoms: _27  and  _30
REMARK   14  A    between atoms: _30  and  _31
REMARK   15  A    between atoms: _31  and  _32
REMARK   16  A    between atoms: _37  and  _39
REMARK   17  A    between atoms: _39  and  _40
REMARK   18  A    between atoms: _39  and  _42
REMARK   19  A    between atoms: _42  and  _43
REMARK   20  A    between atoms: _46  and  _48
REMARK   21  A    between atoms: _48  and  _49
REMARK   22  A    between atoms: _48  and  _51
REMARK   23  A    between atoms: _52  and  _53
REMARK   24  A    between atoms: _56  and  _58
REMARK   25  A    between atoms: _58  and  _59
REMARK   26  A    between atoms: _61  and  _63
REMARK   27  A    between atoms: _63  and  _64
REMARK   28  A    between atoms: _63  and  _66
REMARK   29  A    between atoms: _70  and  _71
REMARK   30  A    between atoms: _76  and  _78
REMARK   31  A    between atoms: _78  and  _79
REMARK   32  A    between atoms: _78  and  _81
REMARK   33  A    between atoms: _81  and  _82
REMARK   34  A    between atoms: _82  and  _83
REMARK   35  A    between atoms: _86  and  _88
REMARK   36  A    between atoms: _88  and  _89
REMARK   37  A    between atoms: _88  and  _91
REMARK   38  A    between atoms: _91  and  _92
REMARK   39  A    between atoms: _94  and  _96
REMARK   40  A    between atoms: _96  and  _97
REMARK   41  A    between atoms: _96  and  _99
REMARK   42  A    between atoms: _99  and  _100
REMARK   43  A    between atoms: _105  and  _107
REMARK   44  A    between atoms: _107  and  _108
REMARK   45  A    between atoms: _107  and  _110
REMARK   46  A    between atoms: _110  and  _111
REMARK   47  A    between atoms: _111  and  _112
REMARK   48  A    between atoms: _112  and  _113
REMARK   49  A    between atoms: _123  and  _124
REMARK   50  A    between atoms: _129  and  _131
REMARK   51  A    between atoms: _131  and  _132
REMARK   52  A    between atoms: _131  and  _134
REMARK   53  A    between atoms: _134  and  _135
REMARK   54  A    between atoms: _140  and  _141
REMARK   55  A    between atoms: _143  and  _145
REMARK   56  A    between atoms: _145  and  _146
REMARK   57  A    between atoms: _145  and  _148
REMARK   58  A    between atoms: _148  and  _149
REMARK   59  A    between atoms: _154  and  _155
REMARK   60  A    between atoms: _157  and  _159
REMARK   61  A    between atoms: _159  and  _160
REMARK   62  A    between atoms: _159  and  _162
REMARK   63  A    between atoms: _165  and  _167
REMARK   64  A    between atoms: _167  and  _168
REMARK   65  A    between atoms: _167  and  _170
REMARK   66  A    between atoms: _170  and  _171
REMARK   67  A    between atoms: _177  and  _178
REMARK   68  A    between atoms: _183  and  _185
REMARK   69  A    between atoms: _185  and  _186
REMARK   70  A    between atoms: _185  and  _188
REMARK   71  A    between atoms: _188  and  _189
REMARK   72  A    between atoms: _191  and  _193
REMARK   73  A    between atoms: _193  and  _194
REMARK   74  A    between atoms: _193  and  _196
REMARK   75  A    between atoms: _196  and  _197
REMARK   76  A    between atoms: _197  and  _198
REMARK   77  A    between atoms: _201  and  _203
REMARK   78  A    between atoms: _203  and  _204
REMARK   79  A    between atoms: _203  and  _206
REMARK   80  A    between atoms: _206  and  _207
REMARK   81  A    between atoms: _212  and  _213
REMARK   82  A    between atoms: _215  and  _217
REMARK   83  A    between atoms: _217  and  _218
REMARK   84  A    between atoms: _217  and  _220
REMARK   85  A    between atoms: _220  and  _221
REMARK   86  A    between atoms: _226  and  _228
REMARK   87  A    between atoms: _228  and  _229
REMARK   88  A    between atoms: _228  and  _231
REMARK   89  A    between atoms: _231  and  _232
REMARK   90  A    between atoms: _237  and  _239
REMARK   91  A    between atoms: _239  and  _240
REMARK   92  A    between atoms: _239  and  _242
REMARK   93  A    between atoms: _242  and  _243
REMARK   94  A    between atoms: _243  and  _244
REMARK   95  A    between atoms: _246  and  _248
REMARK   96  A    between atoms: _248  and  _249
REMARK   97  A    between atoms: _248  and  _251
REMARK   98  A    between atoms: _251  and  _252
REMARK   99  A    between atoms: _257  and  _258
REMARK  100  A    between atoms: _260  and  _262
REMARK  101  A    between atoms: _262  and  _263
REMARK  102  A    between atoms: _262  and  _265
REMARK  103  A    between atoms: _265  and  _266
REMARK  104  A    between atoms: _269  and  _271
REMARK  105  A    between atoms: _271  and  _272
REMARK  106  A    between atoms: _271  and  _274
REMARK  107  A    between atoms: _274  and  _275
REMARK  108  A    between atoms: _275  and  _492
REMARK  109  A    between atoms: _276  and  _278
REMARK  110  A    between atoms: _278  and  _279
REMARK  111  A    between atoms: _278  and  _281
REMARK  112  A    between atoms: _281  and  _282
REMARK  113  A    between atoms: _285  and  _287
REMARK  114  A    between atoms: _287  and  _288
REMARK  115  A    between atoms: _287  and  _290
REMARK  116  A    between atoms: _290  and  _291
REMARK  117  A    between atoms: _296  and  _297
REMARK  118  A    between atoms: _299  and  _301
REMARK  119  A    between atoms: _301  and  _302
REMARK  120  A    between atoms: _301  and  _304
REMARK  121  A    between atoms: _304  and  _305
REMARK  122  A    between atoms: _310  and  _311
REMARK  123  A    between atoms: _313  and  _315
REMARK  124  A    between atoms: _315  and  _316
REMARK  125  A    between atoms: _315  and  _318
REMARK  126  A    between atoms: _318  and  _319
REMARK  127  A    between atoms: _319  and  _320
REMARK  128  A    between atoms: _323  and  _325
REMARK  129  A    between atoms: _325  and  _326
REMARK  130  A    between atoms: _325  and  _328
REMARK  131  A    between atoms: _328  and  _329
REMARK  132  A    between atoms: _334  and  _335
REMARK  133  A    between atoms: _337  and  _339
REMARK  134  A    between atoms: _339  and  _340
REMARK  135  A    between atoms: _339  and  _342
REMARK  136  A    between atoms: _342  and  _343
REMARK  137  A    between atoms: _348  and  _350
REMARK  138  A    between atoms: _350  and  _351
REMARK  139  A    between atoms: _350  and  _353
REMARK  140  A    between atoms: _353  and  _354
REMARK  141  A    between atoms: _357  and  _359
REMARK  142  A    between atoms: _359  and  _360
REMARK  143  A    between atoms: _359  and  _362
REMARK  144  A    between atoms: _362  and  _363
REMARK  145  A    between atoms: _368  and  _370
REMARK  146  A    between atoms: _370  and  _371
REMARK  147  A    between atoms: _370  and  _373
REMARK  148  A    between atoms: _373  and  _374
REMARK  149  A    between atoms: _384  and  _386
REMARK  150  A    between atoms: _386  and  _387
REMARK  151  A    between atoms: _386  and  _389
REMARK  152  A    between atoms: _389  and  _390
REMARK  153  A    between atoms: _396  and  _398
REMARK  154  A    between atoms: _398  and  _399
REMARK  155  A    between atoms: _398  and  _401
REMARK  156  A    between atoms: _401  and  _402
REMARK  157  A    between atoms: _405  and  _407
REMARK  158  A    between atoms: _407  and  _408
REMARK  159  A    between atoms: _407  and  _410
REMARK  160  A    between atoms: _410  and  _411
REMARK  161  A    between atoms: _414  and  _416
REMARK  162  A    between atoms: _416  and  _417
REMARK  163  A    between atoms: _416  and  _419
REMARK  164  A    between atoms: _419  and  _420
REMARK  165  A    between atoms: _420  and  _421
REMARK  166  A    between atoms: _421  and  _422
REMARK  167  A    between atoms: _431  and  _433
REMARK  168  A    between atoms: _433  and  _434
REMARK  169  A    between atoms: _433  and  _436
REMARK  170  A    between atoms: _436  and  _437
REMARK  171  A    between atoms: _442  and  _444
REMARK  172  A    between atoms: _444  and  _445
REMARK  173  A    between atoms: _444  and  _447
REMARK  174  A    between atoms: _447  and  _448
REMARK  175  A    between atoms: _449  and  _450
REMARK  176  A    between atoms: _459  and  _461
REMARK  177  A    between atoms: _461  and  _462
REMARK  178  A    between atoms: _465  and  _467
REMARK  179  A    between atoms: _467  and  _468
REMARK  180  A    between atoms: _470  and  _472
REMARK  181  A    between atoms: _472  and  _473
REMARK  182  A    between atoms: _472  and  _475
REMARK  183  A    between atoms: _475  and  _476
REMARK  184  A    between atoms: _486  and  _488
REMARK  185  A    between atoms: _488  and  _489
REMARK  186  A    between atoms: _488  and  _491
REMARK  187  A    between atoms: _491  and  _492
REMARK  188  A    between atoms: _493  and  _495
REMARK  189  A    between atoms: _495  and  _496
REMARK  190  A    between atoms: _499  and  _501
REMARK  191  A    between atoms: _501  and  _502
REMARK  192  A    between atoms: _501  and  _504
REMARK  193  A    between atoms: _504  and  _505
REMARK  194  A    between atoms: _508  and  _510
REMARK  195  A    between atoms: _510  and  _511
REMARK  196  A    between atoms: _510  and  _513
REMARK  197  A    between atoms: _513  and  _514
REMARK  198  A    between atoms: _519  and  _520
REMARK  199  A    between atoms: _522  and  _524
REMARK  200  A    between atoms: _524  and  _525
REMARK  201  A    between atoms: _524  and  _527
REMARK  202  A    between atoms: _527  and  _528
REMARK  203  A    between atoms: _530  and  _532
REMARK  204  A    between atoms: _532  and  _533
REMARK  205  A    between atoms: _532  and  _535
REMARK  206  A    between atoms: _535  and  _536
REMARK  207  A    between atoms: _542  and  _544
REMARK  208  A    between atoms: _544  and  _545
REMARK  209  A    between atoms: _544  and  _547
REMARK  210  A    between atoms: _547  and  _548
REMARK  211  A    between atoms: _551  and  _553
REMARK  212  A    between atoms: _553  and  _554
REMARK  213  A    between atoms: _553  and  _556
REMARK  214  A    between atoms: _556  and  _557
REMARK  215  A    between atoms: _559  and  _561
REMARK  216  A    between atoms: _561  and  _562
REMARK  217  A    between atoms: _561  and  _564
REMARK  218  A    between atoms: _564  and  _565
REMARK  219  A    between atoms: _570  and  _572
REMARK  220  A    between atoms: _572  and  _573
REMARK  221  A    between atoms: _572  and  _575
REMARK  222  A    between atoms: _575  and  _576
REMARK  223  A    between atoms: _581  and  _583
REMARK  224  A    between atoms: _583  and  _584
REMARK  225  A    between atoms: _583  and  _586
REMARK  226  A    between atoms: _586  and  _587
REMARK  227  A    between atoms: _590  and  _592
REMARK  228  A    between atoms: _592  and  _593
REMARK  229  A    between atoms: _596  and  _598
REMARK  230  A    between atoms: _598  and  _599
REMARK  231  A    between atoms: _598  and  _601
REMARK  232  A    between atoms: _601  and  _602
REMARK  233  A    between atoms: _607  and  _608
REMARK  234  A    between atoms: _610  and  _612
REMARK  235  A    between atoms: _612  and  _613
REMARK  236  A    between atoms: _612  and  _615
REMARK  237  A    between atoms: _615  and  _616
REMARK  238  A    between atoms: _621  and  _622
REMARK  239  A    between atoms: _624  and  _626
REMARK  240  A    between atoms: _626  and  _627
REMARK  241  A    between atoms: _626  and  _629
REMARK  242  A    between atoms: _632  and  _634
REMARK  243  A    between atoms: _634  and  _635
REMARK  244  A    between atoms: _634  and  _637
REMARK  245  A    between atoms: _637  and  _638
REMARK  246  A    between atoms: _643  and  _645
REMARK  247  A    between atoms: _645  and  _646
REMARK  248  A    between atoms: _649  and  _651
REMARK  249  A    between atoms: _651  and  _652
REMARK  250  A    between atoms: _651  and  _654
REMARK  251  A    between atoms: _654  and  _655
REMARK  252  A    between atoms: _655  and  _656
REMARK  253  A    between atoms: _656  and  _657
REMARK  254  A    between atoms: _666  and  _668
REMARK  255  A    between atoms: _668  and  _669
REMARK  256  A    between atoms: _668  and  _671
REMARK  257  A    between atoms: _671  and  _672
REMARK  258  A    between atoms: _675  and  _677
REMARK  259  A    between atoms: _677  and  _678
REMARK  260  A    between atoms: _677  and  _680
REMARK  261  A    between atoms: _680  and  _681
REMARK  262  A    between atoms: _684  and  _686
REMARK  263  A    between atoms: _686  and  _687
REMARK  264  A    between atoms: _686  and  _689
REMARK  265  A    between atoms: _689  and  _690
REMARK                            x       y       z     vdW  Elec       q    Type
REMARK                         _______ _______ _______ _____ _____    ______ ____
ROOT
ATOM      1  O   HOH     1      -7.581  17.524  15.346  0.00  0.00    +0.000 OA
ENDROOT
TORSDOF 0
REMARK  Name = ../refined-set-2016/1b2h/1b2h_pocket.pdb
REMARK  265 active torsions:
REMARK  status: ('A' for Active; 'I' for Inactive)
REMARK    1  A    between atoms: _1  and  _3
REMARK    2  A    between atoms: _3  and  _4
REMARK    3  A    between atoms: _3  and  _6
REMARK    4  A    between atoms: _6  and  _7
REMARK    5  A    between atoms: _12  and  _14
REMARK    6  A    between atoms: _14  and  _15
REMARK    7  A    between atoms: _17  and  _19
REMARK    8  A    between atoms: _19  and  _20
REMARK    9  A    between atoms: _19  and  _22
REMARK   10  A    between atoms: _22  and  _23
REMARK   11  A    between atoms: _25  and  _27
REMARK   12  A    between atoms: _27  and  _28
REMARK   13  A    between atoms: _27  and  _30
REMARK   14  A    between atoms: _30  and  _31
REMARK   15  A    between atoms: _31  and  _32
REMARK   16  A    between atoms: _37  and  _39
REMARK   17  A    between atoms: _39  and  _40
REMARK   18  A    between atoms: _39  and  _42
REMARK   19  A    between atoms: _42  and  _43
REMARK   20  A    between atoms: _46  and  _48
REMARK   21  A    between atoms: _48  and  _49
REMARK   22  A    between atoms: _48  and  _51
REMARK   23  A    between atoms: _52  and  _53
REMARK   24  A    between atoms: _56  and  _58
REMARK   25  A    between atoms: _58  and  _59
REMARK   26  A    between atoms: _61  and  _63
REMARK   27  A    between atoms: _63  and  _64
REMARK   28  A    between atoms: _63  and  _66
REMARK   29  A    between atoms: _70  and  _71
REMARK   30  A    between atoms: _76  and  _78
REMARK   31  A    between atoms: _78  and  _79
REMARK   32  A    between atoms: _78  and  _81
REMARK   33  A    between atoms: _81  and  _82
REMARK   34  A    between atoms: _82  and  _83
REMARK   35  A    between atoms: _86  and  _88
REMARK   36  A    between atoms: _88  and  _89
REMARK   37  A    between atoms: _88  and  _91
REMARK   38  A    between atoms: _91  and  _92
REMARK   39  A    between atoms: _94  and  _96
REMARK   40  A    between atoms: _96  and  _97
REMARK   41  A    between atoms: _96  and  _99
REMARK   42  A    between atoms: _99  and  _100
REMARK   43  A    between atoms: _105  and  _107
REMARK   44  A    between atoms: _107  and  _108
REMARK   45  A    between atoms: _107  and  _110
REMARK   46  A    between atoms: _110  and  _111
REMARK   47  A    between atoms: _111  and  _112
REMARK   48  A    between atoms: _112  and  _113
REMARK   49  A    between atoms: _123  and  _124
REMARK   50  A    between atoms: _129  and  _131
REMARK   51  A    between atoms: _131  and  _132
REMARK   52  A    between atoms: _131  and  _134
REMARK   53  A    between atoms: _134  and  _135
REMARK   54  A    between atoms: _140  and  _141
REMARK   55  A    between atoms: _143  and  _145
REMARK   56  A    between atoms: _145  and  _146
REMARK   57  A    between atoms: _145  and  _148
REMARK   58  A    between atoms: _148  and  _149
REMARK   59  A    between atoms: _154  and  _155
REMARK   60  A    between atoms: _157  and  _159
REMARK   61  A    between atoms: _159  and  _160
REMARK   62  A    between atoms: _159  and  _162
REMARK   63  A    between atoms: _165  and  _167
REMARK   64  A    between atoms: _167  and  _168
REMARK   65  A    between atoms: _167  and  _170
REMARK   66  A    between atoms: _170  and  _171
REMARK   67  A    between atoms: _177  and  _178
REMARK   68  A    between atoms: _183  and  _185
REMARK   69  A    between atoms: _185  and  _186
REMARK   70  A    between atoms: _185  and  _188
REMARK   71  A    between atoms: _188  and  _189
REMARK   72  A    between atoms: _191  and  _193
REMARK   73  A    between atoms: _193  and  _194
REMARK   74  A    between atoms: _193  and  _196
REMARK   75  A    between atoms: _196  and  _197
REMARK   76  A    between atoms: _197  and  _198
REMARK   77  A    between atoms: _201  and  _203
REMARK   78  A    between atoms: _203  and  _204
REMARK   79  A    between atoms: _203  and  _206
REMARK   80  A    between atoms: _206  and  _207
REMARK   81  A    between atoms: _212  and  _213
REMARK   82  A    between atoms: _215  and  _217
REMARK   83  A    between atoms: _217  and  _218
REMARK   84  A    between atoms: _217  and  _220
REMARK   85  A    between atoms: _220  and  _221
REMARK   86  A    between atoms: _226  and  _228
REMARK   87  A    between atoms: _228  and  _229
REMARK   88  A    between atoms: _228  and  _231
REMARK   89  A    between atoms: _231  and  _232
REMARK   90  A    between atoms: _237  and  _239
REMARK   91  A    between atoms: _239  and  _240
REMARK   92  A    between atoms: _239  and  _242
REMARK   93  A    between atoms: _242  and  _243
REMARK   94  A    between atoms: _243  and  _244
REMARK   95  A    between atoms: _246  and  _248
REMARK   96  A    between atoms: _248  and  _249
REMARK   97  A    between atoms: _248  and  _251
REMARK   98  A    between atoms: _251  and  _252
REMARK   99  A    between atoms: _257  and  _258
REMARK  100  A    between atoms: _260  and  _262
REMARK  101  A    between atoms: _262  and  _263
REMARK  102  A    between atoms: _262  and  _265
REMARK  103  A    between atoms: _265  and  _266
REMARK  104  A    between atoms: _269  and  _271
REMARK  105  A    between atoms: _271  and  _272
REMARK  106  A    between atoms: _271  and  _274
REMARK  107  A    between atoms: _274  and  _275
REMARK  108  A    between atoms: _275  and  _492
REMARK  109  A    between atoms: _276  and  _278
REMARK  110  A    between atoms: _278  and  _279
REMARK  111  A    between atoms: _278  and  _281
REMARK  112  A    between atoms: _281  and  _282
REMARK  113  A    between atoms: _285  and  _287
REMARK  114  A    between atoms: _287  and  _288
REMARK  115  A    between atoms: _287  and  _290
REMARK  116  A    between atoms: _290  and  _291
REMARK  117  A    between atoms: _296  and  _297
REMARK  118  A    between atoms: _299  and  _301
REMARK  119  A    between atoms: _301  and  _302
REMARK  120  A    between atoms: _301  and  _304
REMARK  121  A    between atoms: _304  and  _305
REMARK  122  A    between atoms: _310  and  _311
REMARK  123  A    between atoms: _313  and  _315
REMARK  124  A    between atoms: _315  and  _316
REMARK  125  A    between atoms: _315  and  _318
REMARK  126  A    between atoms: _318  and  _319
REMARK  127  A    between atoms: _319  and  _320
REMARK  128  A    between atoms: _323  and  _325
REMARK  129  A    between atoms: _325  and  _326
REMARK  130  A    between atoms: _325  and  _328
REMARK  131  A    between atoms: _328  and  _329
REMARK  132  A    between atoms: _334  and  _335
REMARK  133  A    between atoms: _337  and  _339
REMARK  134  A    between atoms: _339  and  _340
REMARK  135  A    between atoms: _339  and  _342
REMARK  136  A    between atoms: _342  and  _343
REMARK  137  A    between atoms: _348  and  _350
REMARK  138  A    between atoms: _350  and  _351
REMARK  139  A    between atoms: _350  and  _353
REMARK  140  A    between atoms: _353  and  _354
REMARK  141  A    between atoms: _357  and  _359
REMARK  142  A    between atoms: _359  and  _360
REMARK  143  A    between atoms: _359  and  _362
REMARK  144  A    between atoms: _362  and  _363
REMARK  145  A    between atoms: _368  and  _370
REMARK  146  A    between atoms: _370  and  _371
REMARK  147  A    between atoms: _370  and  _373
REMARK  148  A    between atoms: _373  and  _374
REMARK  149  A    between atoms: _384  and  _386
REMARK  150  A    between atoms: _386  and  _387
REMARK  151  A    between atoms: _386  and  _389
REMARK  152  A    between atoms: _389  and  _390
REMARK  153  A    between atoms: _396  and  _398
REMARK  154  A    between atoms: _398  and  _399
REMARK  155  A    between atoms: _398  and  _401
REMARK  156  A    between atoms: _401  and  _402
REMARK  157  A    between atoms: _405  and  _407
REMARK  158  A    between atoms: _407  and  _408
REMARK  159  A    between atoms: _407  and  _410
REMARK  160  A    between atoms: _410  and  _411
REMARK  161  A    between atoms: _414  and  _416
REMARK  162  A    between atoms: _416  and  _417
REMARK  163  A    between atoms: _416  and  _419
REMARK  164  A    between atoms: _419  and  _420
REMARK  165  A    between atoms: _420  and  _421
REMARK  166  A    between atoms: _421  and  _422
REMARK  167  A    between atoms: _431  and  _433
REMARK  168  A    between atoms: _433  and  _434
REMARK  169  A    between atoms: _433  and  _436
REMARK  170  A    between atoms: _436  and  _437
REMARK  171  A    between atoms: _442  and  _444
REMARK  172  A    between atoms: _444  and  _445
REMARK  173  A    between atoms: _444  and  _447
REMARK  174  A    between atoms: _447  and  _448
REMARK  175  A    between atoms: _449  and  _450
REMARK  176  A    between atoms: _459  and  _461
REMARK  177  A    between atoms: _461  and  _462
REMARK  178  A    between atoms: _465  and  _467
REMARK  179  A    between atoms: _467  and  _468
REMARK  180  A    between atoms: _470  and  _472
REMARK  181  A    between atoms: _472  and  _473
REMARK  182  A    between atoms: _472  and  _475
REMARK  183  A    between atoms: _475  and  _476
REMARK  184  A    between atoms: _486  and  _488
REMARK  185  A    between atoms: _488  and  _489
REMARK  186  A    between atoms: _488  and  _491
REMARK  187  A    between atoms: _491  and  _492
REMARK  188  A    between atoms: _493  and  _495
REMARK  189  A    between atoms: _495  and  _496
REMARK  190  A    between atoms: _499  and  _501
REMARK  191  A    between atoms: _501  and  _502
REMARK  192  A    between atoms: _501  and  _504
REMARK  193  A    between atoms: _504  and  _505
REMARK  194  A    between atoms: _508  and  _510
REMARK  195  A    between atoms: _510  and  _511
REMARK  196  A    between atoms: _510  and  _513
REMARK  197  A    between atoms: _513  and  _514
REMARK  198  A    between atoms: _519  and  _520
REMARK  199  A    between atoms: _522  and  _524
REMARK  200  A    between atoms: _524  and  _525
REMARK  201  A    between atoms: _524  and  _527
REMARK  202  A    between atoms: _527  and  _528
REMARK  203  A    between atoms: _530  and  _532
REMARK  204  A    between atoms: _532  and  _533
REMARK  205  A    between atoms: _532  and  _535
REMARK  206  A    between atoms: _535  and  _536
REMARK  207  A    between atoms: _542  and  _544
REMARK  208  A    between atoms: _544  and  _545
REMARK  209  A    between atoms: _544  and  _547
REMARK  210  A    between atoms: _547  and  _548
REMARK  211  A    between atoms: _551  and  _553
REMARK  212  A    between atoms: _553  and  _554
REMARK  213  A    between atoms: _553  and  _556
REMARK  214  A    between atoms: _556  and  _557
REMARK  215  A    between atoms: _559  and  _561
REMARK  216  A    between atoms: _561  and  _562
REMARK  217  A    between atoms: _561  and  _564
REMARK  218  A    between atoms: _564  and  _565
REMARK  219  A    between atoms: _570  and  _572
REMARK  220  A    between atoms: _572  and  _573
REMARK  221  A    between atoms: _572  and  _575
REMARK  222  A    between atoms: _575  and  _576
REMARK  223  A    between atoms: _581  and  _583
REMARK  224  A    between atoms: _583  and  _584
REMARK  225  A    between atoms: _583  and  _586
REMARK  226  A    between atoms: _586  and  _587
REMARK  227  A    between atoms: _590  and  _592
REMARK  228  A    between atoms: _592  and  _593
REMARK  229  A    between atoms: _596  and  _598
REMARK  230  A    between atoms: _598  and  _599
REMARK  231  A    between atoms: _598  and  _601
REMARK  232  A    between atoms: _601  and  _602
REMARK  233  A    between atoms: _607  and  _608
REMARK  234  A    between atoms: _610  and  _612
REMARK  235  A    between atoms: _612  and  _613
REMARK  236  A    between atoms: _612  and  _615
REMARK  237  A    between atoms: _615  and  _616
REMARK  238  A    between atoms: _621  and  _622
REMARK  239  A    between atoms: _624  and  _626
REMARK  240  A    between atoms: _626  and  _627
REMARK  241  A    between atoms: _626  and  _629
REMARK  242  A    between atoms: _632  and  _634
REMARK  243  A    between atoms: _634  and  _635
REMARK  244  A    between atoms: _634  and  _637
REMARK  245  A    between atoms: _637  and  _638
REMARK  246  A    between atoms: _643  and  _645
REMARK  247  A    between atoms: _645  and  _646
REMARK  248  A    between atoms: _649  and  _651
REMARK  249  A    between atoms: _651  and  _652
REMARK  250  A    between atoms: _651  and  _654
REMARK  251  A    between atoms: _654  and  _655
REMARK  252  A    between atoms: _655  and  _656
REMARK  253  A    between atoms: _656  and  _657
REMARK  254  A    between atoms: _666  and  _668
REMARK  255  A    between atoms: _668  and  _669
REMARK  256  A    between atoms: _668  and  _671
REMARK  257  A    between atoms: _671  and  _672
REMARK  258  A    between atoms: _675  and  _677
REMARK  259  A    between atoms: _677  and  _678
REMARK  260  A    between atoms: _677  and  _680
REMARK  261  A    between atoms: _680  and  _681
REMARK  262  A    between atoms: _684  and  _686
REMARK  263  A    between atoms: _686  and  _687
REMARK  264  A    between atoms: _686  and  _689
REMARK  265  A    between atoms: _689  and  _690
REMARK                            x       y       z     vdW  Elec       q    Type
REMARK                         _______ _______ _______ _____ _____    ______ ____
ROOT
ATOM      1  O   HOH     1       8.749  29.563  16.513  0.00  0.00    +0.000 OA
ENDROOT
TORSDOF 0
REMARK  Name = ../refined-set-2016/1b2h/1b2h_pocket.pdb
REMARK  265 active torsions:
REMARK  status: ('A' for Active; 'I' for Inactive)
REMARK    1  A    between atoms: _1  and  _3
REMARK    2  A    between atoms: _3  and  _4
REMARK    3  A    between atoms: _3  and  _6
REMARK    4  A    between atoms: _6  and  _7
REMARK    5  A    between atoms: _12  and  _14
REMARK    6  A    between atoms: _14  and  _15
REMARK    7  A    between atoms: _17  and  _19
REMARK    8  A    between atoms: _19  and  _20
REMARK    9  A    between atoms: _19  and  _22
REMARK   10  A    between atoms: _22  and  _23
REMARK   11  A    between atoms: _25  and  _27
REMARK   12  A    between atoms: _27  and  _28
REMARK   13  A    between atoms: _27  and  _30
REMARK   14  A    between atoms: _30  and  _31
REMARK   15  A    between atoms: _31  and  _32
REMARK   16  A    between atoms: _37  and  _39
REMARK   17  A    between atoms: _39  and  _40
REMARK   18  A    between atoms: _39  and  _42
REMARK   19  A    between atoms: _42  and  _43
REMARK   20  A    between atoms: _46  and  _48
REMARK   21  A    between atoms: _48  and  _49
REMARK   22  A    between atoms: _48  and  _51
REMARK   23  A    between atoms: _52  and  _53
REMARK   24  A    between atoms: _56  and  _58
REMARK   25  A    between atoms: _58  and  _59
REMARK   26  A    between atoms: _61  and  _63
REMARK   27  A    between atoms: _63  and  _64
REMARK   28  A    between atoms: _63  and  _66
REMARK   29  A    between atoms: _70  and  _71
REMARK   30  A    between atoms: _76  and  _78
REMARK   31  A    between atoms: _78  and  _79
REMARK   32  A    between atoms: _78  and  _81
REMARK   33  A    between atoms: _81  and  _82
REMARK   34  A    between atoms: _82  and  _83
REMARK   35  A    between atoms: _86  and  _88
REMARK   36  A    between atoms: _88  and  _89
REMARK   37  A    between atoms: _88  and  _91
REMARK   38  A    between atoms: _91  and  _92
REMARK   39  A    between atoms: _94  and  _96
REMARK   40  A    between atoms: _96  and  _97
REMARK   41  A    between atoms: _96  and  _99
REMARK   42  A    between atoms: _99  and  _100
REMARK   43  A    between atoms: _105  and  _107
REMARK   44  A    between atoms: _107  and  _108
REMARK   45  A    between atoms: _107  and  _110
REMARK   46  A    between atoms: _110  and  _111
REMARK   47  A    between atoms: _111  and  _112
REMARK   48  A    between atoms: _112  and  _113
REMARK   49  A    between atoms: _123  and  _124
REMARK   50  A    between atoms: _129  and  _131
REMARK   51  A    between atoms: _131  and  _132
REMARK   52  A    between atoms: _131  and  _134
REMARK   53  A    between atoms: _134  and  _135
REMARK   54  A    between atoms: _140  and  _141
REMARK   55  A    between atoms: _143  and  _145
REMARK   56  A    between atoms: _145  and  _146
REMARK   57  A    between atoms: _145  and  _148
REMARK   58  A    between atoms: _148  and  _149
REMARK   59  A    between atoms: _154  and  _155
REMARK   60  A    between atoms: _157  and  _159
REMARK   61  A    between atoms: _159  and  _160
REMARK   62  A    between atoms: _159  and  _162
REMARK   63  A    between atoms: _165  and  _167
REMARK   64  A    between atoms: _167  and  _168
REMARK   65  A    between atoms: _167  and  _170
REMARK   66  A    between atoms: _170  and  _171
REMARK   67  A    between atoms: _177  and  _178
REMARK   68  A    between atoms: _183  and  _185
REMARK   69  A    between atoms: _185  and  _186
REMARK   70  A    between atoms: _185  and  _188
REMARK   71  A    between atoms: _188  and  _189
REMARK   72  A    between atoms: _191  and  _193
REMARK   73  A    between atoms: _193  and  _194
REMARK   74  A    between atoms: _193  and  _196
REMARK   75  A    between atoms: _196  and  _197
REMARK   76  A    between atoms: _197  and  _198
REMARK   77  A    between atoms: _201  and  _203
REMARK   78  A    between atoms: _203  and  _204
REMARK   79  A    between atoms: _203  and  _206
REMARK   80  A    between atoms: _206  and  _207
REMARK   81  A    between atoms: _212  and  _213
REMARK   82  A    between atoms: _215  and  _217
REMARK   83  A    between atoms: _217  and  _218
REMARK   84  A    between atoms: _217  and  _220
REMARK   85  A    between atoms: _220  and  _221
REMARK   86  A    between atoms: _226  and  _228
REMARK   87  A    between atoms: _228  and  _229
REMARK   88  A    between atoms: _228  and  _231
REMARK   89  A    between atoms: _231  and  _232
REMARK   90  A    between atoms: _237  and  _239
REMARK   91  A    between atoms: _239  and  _240
REMARK   92  A    between atoms: _239  and  _242
REMARK   93  A    between atoms: _242  and  _243
REMARK   94  A    between atoms: _243  and  _244
REMARK   95  A    between atoms: _246  and  _248
REMARK   96  A    between atoms: _248  and  _249
REMARK   97  A    between atoms: _248  and  _251
REMARK   98  A    between atoms: _251  and  _252
REMARK   99  A    between atoms: _257  and  _258
REMARK  100  A    between atoms: _260  and  _262
REMARK  101  A    between atoms: _262  and  _263
REMARK  102  A    between atoms: _262  and  _265
REMARK  103  A    between atoms: _265  and  _266
REMARK  104  A    between atoms: _269  and  _271
REMARK  105  A    between atoms: _271  and  _272
REMARK  106  A    between atoms: _271  and  _274
REMARK  107  A    between atoms: _274  and  _275
REMARK  108  A    between atoms: _275  and  _492
REMARK  109  A    between atoms: _276  and  _278
REMARK  110  A    between atoms: _278  and  _279
REMARK  111  A    between atoms: _278  and  _281
REMARK  112  A    between atoms: _281  and  _282
REMARK  113  A    between atoms: _285  and  _287
REMARK  114  A    between atoms: _287  and  _288
REMARK  115  A    between atoms: _287  and  _290
REMARK  116  A    between atoms: _290  and  _291
REMARK  117  A    between atoms: _296  and  _297
REMARK  118  A    between atoms: _299  and  _301
REMARK  119  A    between atoms: _301  and  _302
REMARK  120  A    between atoms: _301  and  _304
REMARK  121  A    between atoms: _304  and  _305
REMARK  122  A    between atoms: _310  and  _311
REMARK  123  A    between atoms: _313  and  _315
REMARK  124  A    between atoms: _315  and  _316
REMARK  125  A    between atoms: _315  and  _318
REMARK  126  A    between atoms: _318  and  _319
REMARK  127  A    between atoms: _319  and  _320
REMARK  128  A    between atoms: _323  and  _325
REMARK  129  A    between atoms: _325  and  _326
REMARK  130  A    between atoms: _325  and  _328
REMARK  131  A    between atoms: _328  and  _329
REMARK  132  A    between atoms: _334  and  _335
REMARK  133  A    between atoms: _337  and  _339
REMARK  134  A    between atoms: _339  and  _340
REMARK  135  A    between atoms: _339  and  _342
REMARK  136  A    between atoms: _342  and  _343
REMARK  137  A    between atoms: _348  and  _350
REMARK  138  A    between atoms: _350  and  _351
REMARK  139  A    between atoms: _350  and  _353
REMARK  140  A    between atoms: _353  and  _354
REMARK  141  A    between atoms: _357  and  _359
REMARK  142  A    between atoms: _359  and  _360
REMARK  143  A    between atoms: _359  and  _362
REMARK  144  A    between atoms: _362  and  _363
REMARK  145  A    between atoms: _368  and  _370
REMARK  146  A    between atoms: _370  and  _371
REMARK  147  A    between atoms: _370  and  _373
REMARK  148  A    between atoms: _373  and  _374
REMARK  149  A    between atoms: _384  and  _386
REMARK  150  A    between atoms: _386  and  _387
REMARK  151  A    between atoms: _386  and  _389
REMARK  152  A    between atoms: _389  and  _390
REMARK  153  A    between atoms: _396  and  _398
REMARK  154  A    between atoms: _398  and  _399
REMARK  155  A    between atoms: _398  and  _401
REMARK  156  A    between atoms: _401  and  _402
REMARK  157  A    between atoms: _405  and  _407
REMARK  158  A    between atoms: _407  and  _408
REMARK  159  A    between atoms: _407  and  _410
REMARK  160  A    between atoms: _410  and  _411
REMARK  161  A    between atoms: _414  and  _416
REMARK  162  A    between atoms: _416  and  _417
REMARK  163  A    between atoms: _416  and  _419
REMARK  164  A    between atoms: _419  and  _420
REMARK  165  A    between atoms: _420  and  _421
REMARK  166  A    between atoms: _421  and  _422
REMARK  167  A    between atoms: _431  and  _433
REMARK  168  A    between atoms: _433  and  _434
REMARK  169  A    between atoms: _433  and  _436
REMARK  170  A    between atoms: _436  and  _437
REMARK  171  A    between atoms: _442  and  _444
REMARK  172  A    between atoms: _444  and  _445
REMARK  173  A    between atoms: _444  and  _447
REMARK  174  A    between atoms: _447  and  _448
REMARK  175  A    between atoms: _449  and  _450
REMARK  176  A    between atoms: _459  and  _461
REMARK  177  A    between atoms: _461  and  _462
REMARK  178  A    between atoms: _465  and  _467
REMARK  179  A    between atoms: _467  and  _468
REMARK  180  A    between atoms: _470  and  _472
REMARK  181  A    between atoms: _472  and  _473
REMARK  182  A    between atoms: _472  and  _475
REMARK  183  A    between atoms: _475  and  _476
REMARK  184  A    between atoms: _486  and  _488
REMARK  185  A    between atoms: _488  and  _489
REMARK  186  A    between atoms: _488  and  _491
REMARK  187  A    between atoms: _491  and  _492
REMARK  188  A    between atoms: _493  and  _495
REMARK  189  A    between atoms: _495  and  _496
REMARK  190  A    between atoms: _499  and  _501
REMARK  191  A    between atoms: _501  and  _502
REMARK  192  A    between atoms: _501  and  _504
REMARK  193  A    between atoms: _504  and  _505
REMARK  194  A    between atoms: _508  and  _510
REMARK  195  A    between atoms: _510  and  _511
REMARK  196  A    between atoms: _510  and  _513
REMARK  197  A    between atoms: _513  and  _514
REMARK  198  A    between atoms: _519  and  _520
REMARK  199  A    between atoms: _522  and  _524
REMARK  200  A    between atoms: _524  and  _525
REMARK  201  A    between atoms: _524  and  _527
REMARK  202  A    between atoms: _527  and  _528
REMARK  203  A    between atoms: _530  and  _532
REMARK  204  A    between atoms: _532  and  _533
REMARK  205  A    between atoms: _532  and  _535
REMARK  206  A    between atoms: _535  and  _536
REMARK  207  A    between atoms: _542  and  _544
REMARK  208  A    between atoms: _544  and  _545
REMARK  209  A    between atoms: _544  and  _547
REMARK  210  A    between atoms: _547  and  _548
REMARK  211  A    between atoms: _551  and  _553
REMARK  212  A    between atoms: _553  and  _554
REMARK  213  A    between atoms: _553  and  _556
REMARK  214  A    between atoms: _556  and  _557
REMARK  215  A    between atoms: _559  and  _561
REMARK  216  A    between atoms: _561  and  _562
REMARK  217  A    between atoms: _561  and  _564
REMARK  218  A    between atoms: _564  and  _565
REMARK  219  A    between atoms: _570  and  _572
REMARK  220  A    between atoms: _572  and  _573
REMARK  221  A    between atoms: _572  and  _575
REMARK  222  A    between atoms: _575  and  _576
REMARK  223  A    between atoms: _581  and  _583
REMARK  224  A    between atoms: _583  and  _584
REMARK  225  A    between atoms: _583  and  _586
REMARK  226  A    between atoms: _586  and  _587
REMARK  227  A    between atoms: _590  and  _592
REMARK  228  A    between atoms: _592  and  _593
REMARK  229  A    between atoms: _596  and  _598
REMARK  230  A    between atoms: _598  and  _599
REMARK  231  A    between atoms: _598  and  _601
REMARK  232  A    between atoms: _601  and  _602
REMARK  233  A    between atoms: _607  and  _608
REMARK  234  A    between atoms: _610  and  _612
REMARK  235  A    between atoms: _612  and  _613
REMARK  236  A    between atoms: _612  and  _615
REMARK  237  A    between atoms: _615  and  _616
REMARK  238  A    between atoms: _621  and  _622
REMARK  239  A    between atoms: _624  and  _626
REMARK  240  A    between atoms: _626  and  _627
REMARK  241  A    between atoms: _626  and  _629
REMARK  242  A    between atoms: _632  and  _634
REMARK  243  A    between atoms: _634  and  _635
REMARK  244  A    between atoms: _634  and  _637
REMARK  245  A    between atoms: _637  and  _638
REMARK  246  A    between atoms: _643  and  _645
REMARK  247  A    between atoms: _645  and  _646
REMARK  248  A    between atoms: _649  and  _651
REMARK  249  A    between atoms: _651  and  _652
REMARK  250  A    between atoms: _651  and  _654
REMARK  251  A    between atoms: _654  and  _655
REMARK  252  A    between atoms: _655  and  _656
REMARK  253  A    between atoms: _656  and  _657
REMARK  254  A    between atoms: _666  and  _668
REMARK  255  A    between atoms: _668  and  _669
REMARK  256  A    between atoms: _668  and  _671
REMARK  257  A    between atoms: _671  and  _672
REMARK  258  A    between atoms: _675  and  _677
REMARK  259  A    between atoms: _677  and  _678
REMARK  260  A    between atoms: _677  and  _680
REMARK  261  A    between atoms: _680  and  _681
REMARK  262  A    between atoms: _684  and  _686
REMARK  263  A    between atoms: _686  and  _687
REMARK  264  A    between atoms: _686  and  _689
REMARK  265  A    between atoms: _689  and  _690
REMARK                            x       y       z     vdW  Elec       q    Type
REMARK                         _______ _______ _______ _____ _____    ______ ____
ROOT
ATOM      1  O   HOH     1      -4.120  20.015  16.140  0.00  0.00    +0.000 OA
ENDROOT
TORSDOF 0
REMARK  Name = ../refined-set-2016/1b2h/1b2h_pocket.pdb
REMARK  265 active torsions:
REMARK  status: ('A' for Active; 'I' for Inactive)
REMARK    1  A    between atoms: _1  and  _3
REMARK    2  A    between atoms: _3  and  _4
REMARK    3  A    between atoms: _3  and  _6
REMARK    4  A    between atoms: _6  and  _7
REMARK    5  A    between atoms: _12  and  _14
REMARK    6  A    between atoms: _14  and  _15
REMARK    7  A    between atoms: _17  and  _19
REMARK    8  A    between atoms: _19  and  _20
REMARK    9  A    between atoms: _19  and  _22
REMARK   10  A    between atoms: _22  and  _23
REMARK   11  A    between atoms: _25  and  _27
REMARK   12  A    between atoms: _27  and  _28
REMARK   13  A    between atoms: _27  and  _30
REMARK   14  A    between atoms: _30  and  _31
REMARK   15  A    between atoms: _31  and  _32
REMARK   16  A    between atoms: _37  and  _39
REMARK   17  A    between atoms: _39  and  _40
REMARK   18  A    between atoms: _39  and  _42
REMARK   19  A    between atoms: _42  and  _43
REMARK   20  A    between atoms: _46  and  _48
REMARK   21  A    between atoms: _48  and  _49
REMARK   22  A    between atoms: _48  and  _51
REMARK   23  A    between atoms: _52  and  _53
REMARK   24  A    between atoms: _56  and  _58
REMARK   25  A    between atoms: _58  and  _59
REMARK   26  A    between atoms: _61  and  _63
REMARK   27  A    between atoms: _63  and  _64
REMARK   28  A    between atoms: _63  and  _66
REMARK   29  A    between atoms: _70  and  _71
REMARK   30  A    between atoms: _76  and  _78
REMARK   31  A    between atoms: _78  and  _79
REMARK   32  A    between atoms: _78  and  _81
REMARK   33  A    between atoms: _81  and  _82
REMARK   34  A    between atoms: _82  and  _83
REMARK   35  A    between atoms: _86  and  _88
REMARK   36  A    between atoms: _88  and  _89
REMARK   37  A    between atoms: _88  and  _91
REMARK   38  A    between atoms: _91  and  _92
REMARK   39  A    between atoms: _94  and  _96
REMARK   40  A    between atoms: _96  and  _97
REMARK   41  A    between atoms: _96  and  _99
REMARK   42  A    between atoms: _99  and  _100
REMARK   43  A    between atoms: _105  and  _107
REMARK   44  A    between atoms: _107  and  _108
REMARK   45  A    between atoms: _107  and  _110
REMARK   46  A    between atoms: _110  and  _111
REMARK   47  A    between atoms: _111  and  _112
REMARK   48  A    between atoms: _112  and  _113
REMARK   49  A    between atoms: _123  and  _124
REMARK   50  A    between atoms: _129  and  _131
REMARK   51  A    between atoms: _131  and  _132
REMARK   52  A    between atoms: _131  and  _134
REMARK   53  A    between atoms: _134  and  _135
REMARK   54  A    between atoms: _140  and  _141
REMARK   55  A    between atoms: _143  and  _145
REMARK   56  A    between atoms: _145  and  _146
REMARK   57  A    between atoms: _145  and  _148
REMARK   58  A    between atoms: _148  and  _149
REMARK   59  A    between atoms: _154  and  _155
REMARK   60  A    between atoms: _157  and  _159
REMARK   61  A    between atoms: _159  and  _160
REMARK   62  A    between atoms: _159  and  _162
REMARK   63  A    between atoms: _165  and  _167
REMARK   64  A    between atoms: _167  and  _168
REMARK   65  A    between atoms: _167  and  _170
REMARK   66  A    between atoms: _170  and  _171
REMARK   67  A    between atoms: _177  and  _178
REMARK   68  A    between atoms: _183  and  _185
REMARK   69  A    between atoms: _185  and  _186
REMARK   70  A    between atoms: _185  and  _188
REMARK   71  A    between atoms: _188  and  _189
REMARK   72  A    between atoms: _191  and  _193
REMARK   73  A    between atoms: _193  and  _194
REMARK   74  A    between atoms: _193  and  _196
REMARK   75  A    between atoms: _196  and  _197
REMARK   76  A    between atoms: _197  and  _198
REMARK   77  A    between atoms: _201  and  _203
REMARK   78  A    between atoms: _203  and  _204
REMARK   79  A    between atoms: _203  and  _206
REMARK   80  A    between atoms: _206  and  _207
REMARK   81  A    between atoms: _212  and  _213
REMARK   82  A    between atoms: _215  and  _217
REMARK   83  A    between atoms: _217  and  _218
REMARK   84  A    between atoms: _217  and  _220
REMARK   85  A    between atoms: _220  and  _221
REMARK   86  A    between atoms: _226  and  _228
REMARK   87  A    between atoms: _228  and  _229
REMARK   88  A    between atoms: _228  and  _231
REMARK   89  A    between atoms: _231  and  _232
REMARK   90  A    between atoms: _237  and  _239
REMARK   91  A    between atoms: _239  and  _240
REMARK   92  A    between atoms: _239  and  _242
REMARK   93  A    between atoms: _242  and  _243
REMARK   94  A    between atoms: _243  and  _244
REMARK   95  A    between atoms: _246  and  _248
REMARK   96  A    between atoms: _248  and  _249
REMARK   97  A    between atoms: _248  and  _251
REMARK   98  A    between atoms: _251  and  _252
REMARK   99  A    between atoms: _257  and  _258
REMARK  100  A    between atoms: _260  and  _262
REMARK  101  A    between atoms: _262  and  _263
REMARK  102  A    between atoms: _262  and  _265
REMARK  103  A    between atoms: _265  and  _266
REMARK  104  A    between atoms: _269  and  _271
REMARK  105  A    between atoms: _271  and  _272
REMARK  106  A    between atoms: _271  and  _274
REMARK  107  A    between atoms: _274  and  _275
REMARK  108  A    between atoms: _275  and  _492
REMARK  109  A    between atoms: _276  and  _278
REMARK  110  A    between atoms: _278  and  _279
REMARK  111  A    between atoms: _278  and  _281
REMARK  112  A    between atoms: _281  and  _282
REMARK  113  A    between atoms: _285  and  _287
REMARK  114  A    between atoms: _287  and  _288
REMARK  115  A    between atoms: _287  and  _290
REMARK  116  A    between atoms: _290  and  _291
REMARK  117  A    between atoms: _296  and  _297
REMARK  118  A    between atoms: _299  and  _301
REMARK  119  A    between atoms: _301  and  _302
REMARK  120  A    between atoms: _301  and  _304
REMARK  121  A    between atoms: _304  and  _305
REMARK  122  A    between atoms: _310  and  _311
REMARK  123  A    between atoms: _313  and  _315
REMARK  124  A    between atoms: _315  and  _316
REMARK  125  A    between atoms: _315  and  _318
REMARK  126  A    between atoms: _318  and  _319
REMARK  127  A    between atoms: _319  and  _320
REMARK  128  A    between atoms: _323  and  _325
REMARK  129  A    between atoms: _325  and  _326
REMARK  130  A    between atoms: _325  and  _328
REMARK  131  A    between atoms: _328  and  _329
REMARK  132  A    between atoms: _334  and  _335
REMARK  133  A    between atoms: _337  and  _339
REMARK  134  A    between atoms: _339  and  _340
REMARK  135  A    between atoms: _339  and  _342
REMARK  136  A    between atoms: _342  and  _343
REMARK  137  A    between atoms: _348  and  _350
REMARK  138  A    between atoms: _350  and  _351
REMARK  139  A    between atoms: _350  and  _353
REMARK  140  A    between atoms: _353  and  _354
REMARK  141  A    between atoms: _357  and  _359
REMARK  142  A    between atoms: _359  and  _360
REMARK  143  A    between atoms: _359  and  _362
REMARK  144  A    between atoms: _362  and  _363
REMARK  145  A    between atoms: _368  and  _370
REMARK  146  A    between atoms: _370  and  _371
REMARK  147  A    between atoms: _370  and  _373
REMARK  148  A    between atoms: _373  and  _374
REMARK  149  A    between atoms: _384  and  _386
REMARK  150  A    between atoms: _386  and  _387
REMARK  151  A    between atoms: _386  and  _389
REMARK  152  A    between atoms: _389  and  _390
REMARK  153  A    between atoms: _396  and  _398
REMARK  154  A    between atoms: _398  and  _399
REMARK  155  A    between atoms: _398  and  _401
REMARK  156  A    between atoms: _401  and  _402
REMARK  157  A    between atoms: _405  and  _407
REMARK  158  A    between atoms: _407  and  _408
REMARK  159  A    between atoms: _407  and  _410
REMARK  160  A    between atoms: _410  and  _411
REMARK  161  A    between atoms: _414  and  _416
REMARK  162  A    between atoms: _416  and  _417
REMARK  163  A    between atoms: _416  and  _419
REMARK  164  A    between atoms: _419  and  _420
REMARK  165  A    between atoms: _420  and  _421
REMARK  166  A    between atoms: _421  and  _422
REMARK  167  A    between atoms: _431  and  _433
REMARK  168  A    between atoms: _433  and  _434
REMARK  169  A    between atoms: _433  and  _436
REMARK  170  A    between atoms: _436  and  _437
REMARK  171  A    between atoms: _442  and  _444
REMARK  172  A    between atoms: _444  and  _445
REMARK  173  A    between atoms: _444  and  _447
REMARK  174  A    between atoms: _447  and  _448
REMARK  175  A    between atoms: _449  and  _450
REMARK  176  A    between atoms: _459  and  _461
REMARK  177  A    between atoms: _461  and  _462
REMARK  178  A    between atoms: _465  and  _467
REMARK  179  A    between atoms: _467  and  _468
REMARK  180  A    between atoms: _470  and  _472
REMARK  181  A    between atoms: _472  and  _473
REMARK  182  A    between atoms: _472  and  _475
REMARK  183  A    between atoms: _475  and  _476
REMARK  184  A    between atoms: _486  and  _488
REMARK  185  A    between atoms: _488  and  _489
REMARK  186  A    between atoms: _488  and  _491
REMARK  187  A    between atoms: _491  and  _492
REMARK  188  A    between atoms: _493  and  _495
REMARK  189  A    between atoms: _495  and  _496
REMARK  190  A    between atoms: _499  and  _501
REMARK  191  A    between atoms: _501  and  _502
REMARK  192  A    between atoms: _501  and  _504
REMARK  193  A    between atoms: _504  and  _505
REMARK  194  A    between atoms: _508  and  _510
REMARK  195  A    between atoms: _510  and  _511
REMARK  196  A    between atoms: _510  and  _513
REMARK  197  A    between atoms: _513  and  _514
REMARK  198  A    between atoms: _519  and  _520
REMARK  199  A    between atoms: _522  and  _524
REMARK  200  A    between atoms: _524  and  _525
REMARK  201  A    between atoms: _524  and  _527
REMARK  202  A    between atoms: _527  and  _528
REMARK  203  A    between atoms: _530  and  _532
REMARK  204  A    between atoms: _532  and  _533
REMARK  205  A    between atoms: _532  and  _535
REMARK  206  A    between atoms: _535  and  _536
REMARK  207  A    between atoms: _542  and  _544
REMARK  208  A    between atoms: _544  and  _545
REMARK  209  A    between atoms: _544  and  _547
REMARK  210  A    between atoms: _547  and  _548
REMARK  211  A    between atoms: _551  and  _553
REMARK  212  A    between atoms: _553  and  _554
REMARK  213  A    between atoms: _553  and  _556
REMARK  214  A    between atoms: _556  and  _557
REMARK  215  A    between atoms: _559  and  _561
REMARK  216  A    between atoms: _561  and  _562
REMARK  217  A    between atoms: _561  and  _564
REMARK  218  A    between atoms: _564  and  _565
REMARK  219  A    between atoms: _570  and  _572
REMARK  220  A    between atoms: _572  and  _573
REMARK  221  A    between atoms: _572  and  _575
REMARK  222  A    between atoms: _575  and  _576
REMARK  223  A    between atoms: _581  and  _583
REMARK  224  A    between atoms: _583  and  _584
REMARK  225  A    between atoms: _583  and  _586
REMARK  226  A    between atoms: _586  and  _587
REMARK  227  A    between atoms: _590  and  _592
REMARK  228  A    between atoms: _592  and  _593
REMARK  229  A    between atoms: _596  and  _598
REMARK  230  A    between atoms: _598  and  _599
REMARK  231  A    between atoms: _598  and  _601
REMARK  232  A    between atoms: _601  and  _602
REMARK  233  A    between atoms: _607  and  _608
REMARK  234  A    between atoms: _610  and  _612
REMARK  235  A    between atoms: _612  and  _613
REMARK  236  A    between atoms: _612  and  _615
REMARK  237  A    between atoms: _615  and  _616
REMARK  238  A    between atoms: _621  and  _622
REMARK  239  A    between atoms: _624  and  _626
REMARK  240  A    between atoms: _626  and  _627
REMARK  241  A    between atoms: _626  and  _629
REMARK  242  A    between atoms: _632  and  _634
REMARK  243  A    between atoms: _634  and  _635
REMARK  244  A    between atoms: _634  and  _637
REMARK  245  A    between atoms: _637  and  _638
REMARK  246  A    between atoms: _643  and  _645
REMARK  247  A    between atoms: _645  and  _646
REMARK  248  A    between atoms: _649  and  _651
REMARK  249  A    between atoms: _651  and  _652
REMARK  250  A    between atoms: _651  and  _654
REMARK  251  A    between atoms: _654  and  _655
REMARK  252  A    between atoms: _655  and  _656
REMARK  253  A    between atoms: _656  and  _657
REMARK  254  A    between atoms: _666  and  _668
REMARK  255  A    between atoms: _668  and  _669
REMARK  256  A    between atoms: _668  and  _671
REMARK  257  A    between atoms: _671  and  _672
REMARK  258  A    between atoms: _675  and  _677
REMARK  259  A    between atoms: _677  and  _678
REMARK  260  A    between atoms: _677  and  _680
REMARK  261  A    between atoms: _680  and  _681
REMARK  262  A    between atoms: _684  and  _686
REMARK  263  A    between atoms: _686  and  _687
REMARK  264  A    between atoms: _686  and  _689
REMARK  265  A    between atoms: _689  and  _690
REMARK                            x       y       z     vdW  Elec       q    Type
REMARK                         _______ _______ _______ _____ _____    ______ ____
ROOT
ATOM      1  O   HOH     1       2.018  22.167  19.108  0.00  0.00    +0.000 OA
ENDROOT
TORSDOF 0
REMARK  Name = ../refined-set-2016/1b2h/1b2h_pocket.pdb
REMARK  265 active torsions:
REMARK  status: ('A' for Active; 'I' for Inactive)
REMARK    1  A    between atoms: _1  and  _3
REMARK    2  A    between atoms: _3  and  _4
REMARK    3  A    between atoms: _3  and  _6
REMARK    4  A    between atoms: _6  and  _7
REMARK    5  A    between atoms: _12  and  _14
REMARK    6  A    between atoms: _14  and  _15
REMARK    7  A    between atoms: _17  and  _19
REMARK    8  A    between atoms: _19  and  _20
REMARK    9  A    between atoms: _19  and  _22
REMARK   10  A    between atoms: _22  and  _23
REMARK   11  A    between atoms: _25  and  _27
REMARK   12  A    between atoms: _27  and  _28
REMARK   13  A    between atoms: _27  and  _30
REMARK   14  A    between atoms: _30  and  _31
REMARK   15  A    between atoms: _31  and  _32
REMARK   16  A    between atoms: _37  and  _39
REMARK   17  A    between atoms: _39  and  _40
REMARK   18  A    between atoms: _39  and  _42
REMARK   19  A    between atoms: _42  and  _43
REMARK   20  A    between atoms: _46  and  _48
REMARK   21  A    between atoms: _48  and  _49
REMARK   22  A    between atoms: _48  and  _51
REMARK   23  A    between atoms: _52  and  _53
REMARK   24  A    between atoms: _56  and  _58
REMARK   25  A    between atoms: _58  and  _59
REMARK   26  A    between atoms: _61  and  _63
REMARK   27  A    between atoms: _63  and  _64
REMARK   28  A    between atoms: _63  and  _66
REMARK   29  A    between atoms: _70  and  _71
REMARK   30  A    between atoms: _76  and  _78
REMARK   31  A    between atoms: _78  and  _79
REMARK   32  A    between atoms: _78  and  _81
REMARK   33  A    between atoms: _81  and  _82
REMARK   34  A    between atoms: _82  and  _83
REMARK   35  A    between atoms: _86  and  _88
REMARK   36  A    between atoms: _88  and  _89
REMARK   37  A    between atoms: _88  and  _91
REMARK   38  A    between atoms: _91  and  _92
REMARK   39  A    between atoms: _94  and  _96
REMARK   40  A    between atoms: _96  and  _97
REMARK   41  A    between atoms: _96  and  _99
REMARK   42  A    between atoms: _99  and  _100
REMARK   43  A    between atoms: _105  and  _107
REMARK   44  A    between atoms: _107  and  _108
REMARK   45  A    between atoms: _107  and  _110
REMARK   46  A    between atoms: _110  and  _111
REMARK   47  A    between atoms: _111  and  _112
REMARK   48  A    between atoms: _112  and  _113
REMARK   49  A    between atoms: _123  and  _124
REMARK   50  A    between atoms: _129  and  _131
REMARK   51  A    between atoms: _131  and  _132
REMARK   52  A    between atoms: _131  and  _134
REMARK   53  A    between atoms: _134  and  _135
REMARK   54  A    between atoms: _140  and  _141
REMARK   55  A    between atoms: _143  and  _145
REMARK   56  A    between atoms: _145  and  _146
REMARK   57  A    between atoms: _145  and  _148
REMARK   58  A    between atoms: _148  and  _149
REMARK   59  A    between atoms: _154  and  _155
REMARK   60  A    between atoms: _157  and  _159
REMARK   61  A    between atoms: _159  and  _160
REMARK   62  A    between atoms: _159  and  _162
REMARK   63  A    between atoms: _165  and  _167
REMARK   64  A    between atoms: _167  and  _168
REMARK   65  A    between atoms: _167  and  _170
REMARK   66  A    between atoms: _170  and  _171
REMARK   67  A    between atoms: _177  and  _178
REMARK   68  A    between atoms: _183  and  _185
REMARK   69  A    between atoms: _185  and  _186
REMARK   70  A    between atoms: _185  and  _188
REMARK   71  A    between atoms: _188  and  _189
REMARK   72  A    between atoms: _191  and  _193
REMARK   73  A    between atoms: _193  and  _194
REMARK   74  A    between atoms: _193  and  _196
REMARK   75  A    between atoms: _196  and  _197
REMARK   76  A    between atoms: _197  and  _198
REMARK   77  A    between atoms: _201  and  _203
REMARK   78  A    between atoms: _203  and  _204
REMARK   79  A    between atoms: _203  and  _206
REMARK   80  A    between atoms: _206  and  _207
REMARK   81  A    between atoms: _212  and  _213
REMARK   82  A    between atoms: _215  and  _217
REMARK   83  A    between atoms: _217  and  _218
REMARK   84  A    between atoms: _217  and  _220
REMARK   85  A    between atoms: _220  and  _221
REMARK   86  A    between atoms: _226  and  _228
REMARK   87  A    between atoms: _228  and  _229
REMARK   88  A    between atoms: _228  and  _231
REMARK   89  A    between atoms: _231  and  _232
REMARK   90  A    between atoms: _237  and  _239
REMARK   91  A    between atoms: _239  and  _240
REMARK   92  A    between atoms: _239  and  _242
REMARK   93  A    between atoms: _242  and  _243
REMARK   94  A    between atoms: _243  and  _244
REMARK   95  A    between atoms: _246  and  _248
REMARK   96  A    between atoms: _248  and  _249
REMARK   97  A    between atoms: _248  and  _251
REMARK   98  A    between atoms: _251  and  _252
REMARK   99  A    between atoms: _257  and  _258
REMARK  100  A    between atoms: _260  and  _262
REMARK  101  A    between atoms: _262  and  _263
REMARK  102  A    between atoms: _262  and  _265
REMARK  103  A    between atoms: _265  and  _266
REMARK  104  A    between atoms: _269  and  _271
REMARK  105  A    between atoms: _271  and  _272
REMARK  106  A    between atoms: _271  and  _274
REMARK  107  A    between atoms: _274  and  _275
REMARK  108  A    between atoms: _275  and  _492
REMARK  109  A    between atoms: _276  and  _278
REMARK  110  A    between atoms: _278  and  _279
REMARK  111  A    between atoms: _278  and  _281
REMARK  112  A    between atoms: _281  and  _282
REMARK  113  A    between atoms: _285  and  _287
REMARK  114  A    between atoms: _287  and  _288
REMARK  115  A    between atoms: _287  and  _290
REMARK  116  A    between atoms: _290  and  _291
REMARK  117  A    between atoms: _296  and  _297
REMARK  118  A    between atoms: _299  and  _301
REMARK  119  A    between atoms: _301  and  _302
REMARK  120  A    between atoms: _301  and  _304
REMARK  121  A    between atoms: _304  and  _305
REMARK  122  A    between atoms: _310  and  _311
REMARK  123  A    between atoms: _313  and  _315
REMARK  124  A    between atoms: _315  and  _316
REMARK  125  A    between atoms: _315  and  _318
REMARK  126  A    between atoms: _318  and  _319
REMARK  127  A    between atoms: _319  and  _320
REMARK  128  A    between atoms: _323  and  _325
REMARK  129  A    between atoms: _325  and  _326
REMARK  130  A    between atoms: _325  and  _328
REMARK  131  A    between atoms: _328  and  _329
REMARK  132  A    between atoms: _334  and  _335
REMARK  133  A    between atoms: _337  and  _339
REMARK  134  A    between atoms: _339  and  _340
REMARK  135  A    between atoms: _339  and  _342
REMARK  136  A    between atoms: _342  and  _343
REMARK  137  A    between atoms: _348  and  _350
REMARK  138  A    between atoms: _350  and  _351
REMARK  139  A    between atoms: _350  and  _353
REMARK  140  A    between atoms: _353  and  _354
REMARK  141  A    between atoms: _357  and  _359
REMARK  142  A    between atoms: _359  and  _360
REMARK  143  A    between atoms: _359  and  _362
REMARK  144  A    between atoms: _362  and  _363
REMARK  145  A    between atoms: _368  and  _370
REMARK  146  A    between atoms: _370  and  _371
REMARK  147  A    between atoms: _370  and  _373
REMARK  148  A    between atoms: _373  and  _374
REMARK  149  A    between atoms: _384  and  _386
REMARK  150  A    between atoms: _386  and  _387
REMARK  151  A    between atoms: _386  and  _389
REMARK  152  A    between atoms: _389  and  _390
REMARK  153  A    between atoms: _396  and  _398
REMARK  154  A    between atoms: _398  and  _399
REMARK  155  A    between atoms: _398  and  _401
REMARK  156  A    between atoms: _401  and  _402
REMARK  157  A    between atoms: _405  and  _407
REMARK  158  A    between atoms: _407  and  _408
REMARK  159  A    between atoms: _407  and  _410
REMARK  160  A    between atoms: _410  and  _411
REMARK  161  A    between atoms: _414  and  _416
REMARK  162  A    between atoms: _416  and  _417
REMARK  163  A    between atoms: _416  and  _419
REMARK  164  A    between atoms: _419  and  _420
REMARK  165  A    between atoms: _420  and  _421
REMARK  166  A    between atoms: _421  and  _422
REMARK  167  A    between atoms: _431  and  _433
REMARK  168  A    between atoms: _433  and  _434
REMARK  169  A    between atoms: _433  and  _436
REMARK  170  A    between atoms: _436  and  _437
REMARK  171  A    between atoms: _442  and  _444
REMARK  172  A    between atoms: _444  and  _445
REMARK  173  A    between atoms: _444  and  _447
REMARK  174  A    between atoms: _447  and  _448
REMARK  175  A    between atoms: _449  and  _450
REMARK  176  A    between atoms: _459  and  _461
REMARK  177  A    between atoms: _461  and  _462
REMARK  178  A    between atoms: _465  and  _467
REMARK  179  A    between atoms: _467  and  _468
REMARK  180  A    between atoms: _470  and  _472
REMARK  181  A    between atoms: _472  and  _473
REMARK  182  A    between atoms: _472  and  _475
REMARK  183  A    between atoms: _475  and  _476
REMARK  184  A    between atoms: _486  and  _488
REMARK  185  A    between atoms: _488  and  _489
REMARK  186  A    between atoms: _488  and  _491
REMARK  187  A    between atoms: _491  and  _492
REMARK  188  A    between atoms: _493  and  _495
REMARK  189  A    between atoms: _495  and  _496
REMARK  190  A    between atoms: _499  and  _501
REMARK  191  A    between atoms: _501  and  _502
REMARK  192  A    between atoms: _501  and  _504
REMARK  193  A    between atoms: _504  and  _505
REMARK  194  A    between atoms: _508  and  _510
REMARK  195  A    between atoms: _510  and  _511
REMARK  196  A    between atoms: _510  and  _513
REMARK  197  A    between atoms: _513  and  _514
REMARK  198  A    between atoms: _519  and  _520
REMARK  199  A    between atoms: _522  and  _524
REMARK  200  A    between atoms: _524  and  _525
REMARK  201  A    between atoms: _524  and  _527
REMARK  202  A    between atoms: _527  and  _528
REMARK  203  A    between atoms: _530  and  _532
REMARK  204  A    between atoms: _532  and  _533
REMARK  205  A    between atoms: _532  and  _535
REMARK  206  A    between atoms: _535  and  _536
REMARK  207  A    between atoms: _542  and  _544
REMARK  208  A    between atoms: _544  and  _545
REMARK  209  A    between atoms: _544  and  _547
REMARK  210  A    between atoms: _547  and  _548
REMARK  211  A    between atoms: _551  and  _553
REMARK  212  A    between atoms: _553  and  _554
REMARK  213  A    between atoms: _553  and  _556
REMARK  214  A    between atoms: _556  and  _557
REMARK  215  A    between atoms: _559  and  _561
REMARK  216  A    between atoms: _561  and  _562
REMARK  217  A    between atoms: _561  and  _564
REMARK  218  A    between atoms: _564  and  _565
REMARK  219  A    between atoms: _570  and  _572
REMARK  220  A    between atoms: _572  and  _573
REMARK  221  A    between atoms: _572  and  _575
REMARK  222  A    between atoms: _575  and  _576
REMARK  223  A    between atoms: _581  and  _583
REMARK  224  A    between atoms: _583  and  _584
REMARK  225  A    between atoms: _583  and  _586
REMARK  226  A    between atoms: _586  and  _587
REMARK  227  A    between atoms: _590  and  _592
REMARK  228  A    between atoms: _592  and  _593
REMARK  229  A    between atoms: _596  and  _598
REMARK  230  A    between atoms: _598  and  _599
REMARK  231  A    between atoms: _598  and  _601
REMARK  232  A    between atoms: _601  and  _602
REMARK  233  A    between atoms: _607  and  _608
REMARK  234  A    between atoms: _610  and  _612
REMARK  235  A    between atoms: _612  and  _613
REMARK  236  A    between atoms: _612  and  _615
REMARK  237  A    between atoms: _615  and  _616
REMARK  238  A    between atoms: _621  and  _622
REMARK  239  A    between atoms: _624  and  _626
REMARK  240  A    between atoms: _626  and  _627
REMARK  241  A    between atoms: _626  and  _629
REMARK  242  A    between atoms: _632  and  _634
REMARK  243  A    between atoms: _634  and  _635
REMARK  244  A    between atoms: _634  and  _637
REMARK  245  A    between atoms: _637  and  _638
REMARK  246  A    between atoms: _643  and  _645
REMARK  247  A    between atoms: _645  and  _646
REMARK  248  A    between atoms: _649  and  _651
REMARK  249  A    between atoms: _651  and  _652
REMARK  250  A    between atoms: _651  and  _654
REMARK  251  A    between atoms: _654  and  _655
REMARK  252  A    between atoms: _655  and  _656
REMARK  253  A    between atoms: _656  and  _657
REMARK  254  A    between atoms: _666  and  _668
REMARK  255  A    between atoms: _668  and  _669
REMARK  256  A    between atoms: _668  and  _671
REMARK  257  A    between atoms: _671  and  _672
REMARK  258  A    between atoms: _675  and  _677
REMARK  259  A    between atoms: _677  and  _678
REMARK  260  A    between atoms: _677  and  _680
REMARK  261  A    between atoms: _680  and  _681
REMARK  262  A    between atoms: _684  and  _686
REMARK  263  A    between atoms: _686  and  _687
REMARK  264  A    between atoms: _686  and  _689
REMARK  265  A    between atoms: _689  and  _690
REMARK                            x       y       z     vdW  Elec       q    Type
REMARK                         _______ _______ _______ _____ _____    ______ ____
ROOT
ATOM      1  O   HOH     1       6.810  21.455  21.402  0.00  0.00    +0.000 OA
ENDROOT
TORSDOF 0
