REMARK  Name = ../refined-set-2016/3re4/3re4_pocket.pdb
REMARK  192 active torsions:
REMARK  status: ('A' for Active; 'I' for Inactive)
REMARK    1  A    between atoms: _1  and  _3
REMARK    2  A    between atoms: _3  and  _4
REMARK    3  A    between atoms: _3  and  _6
REMARK    4  A    between atoms: _9  and  _11
REMARK    5  A    between atoms: _11  and  _12
REMARK    6  A    between atoms: _11  and  _14
REMARK    7  A    between atoms: _14  and  _15
REMARK    8  A    between atoms: _18  and  _20
REMARK    9  A    between atoms: _20  and  _21
REMARK   10  A    between atoms: _20  and  _23
REMARK   11  A    between atoms: _23  and  _24
REMARK   12  A    between atoms: _26  and  _28
REMARK   13  A    between atoms: _28  and  _29
REMARK   14  A    between atoms: _28  and  _31
REMARK   15  A    between atoms: _31  and  _32
REMARK   16  A    between atoms: _35  and  _37
REMARK   17  A    between atoms: _37  and  _38
REMARK   18  A    between atoms: _40  and  _42
REMARK   19  A    between atoms: _42  and  _43
REMARK   20  A    between atoms: _46  and  _48
REMARK   21  A    between atoms: _48  and  _49
REMARK   22  A    between atoms: _48  and  _51
REMARK   23  A    between atoms: _51  and  _52
REMARK   24  A    between atoms: _57  and  _59
REMARK   25  A    between atoms: _59  and  _60
REMARK   26  A    between atoms: _59  and  _62
REMARK   27  A    between atoms: _65  and  _67
REMARK   28  A    between atoms: _67  and  _68
REMARK   29  A    between atoms: _67  and  _70
REMARK   30  A    between atoms: _70  and  _71
REMARK   31  A    between atoms: _77  and  _79
REMARK   32  A    between atoms: _79  and  _80
REMARK   33  A    between atoms: _79  and  _82
REMARK   34  A    between atoms: _82  and  _83
REMARK   35  A    between atoms: _88  and  _89
REMARK   36  A    between atoms: _91  and  _93
REMARK   37  A    between atoms: _93  and  _94
REMARK   38  A    between atoms: _97  and  _99
REMARK   39  A    between atoms: _99  and  _100
REMARK   40  A    between atoms: _103  and  _105
REMARK   41  A    between atoms: _105  and  _106
REMARK   42  A    between atoms: _105  and  _108
REMARK   43  A    between atoms: _108  and  _109
REMARK   44  A    between atoms: _109  and  _110
REMARK   45  A    between atoms: _112  and  _114
REMARK   46  A    between atoms: _114  and  _115
REMARK   47  A    between atoms: _118  and  _120
REMARK   48  A    between atoms: _120  and  _121
REMARK   49  A    between atoms: _120  and  _123
REMARK   50  A    between atoms: _126  and  _128
REMARK   51  A    between atoms: _128  and  _129
REMARK   52  A    between atoms: _128  and  _131
REMARK   53  A    between atoms: _131  and  _132
REMARK   54  A    between atoms: _132  and  _133
REMARK   55  A    between atoms: _133  and  _134
REMARK   56  A    between atoms: _134  and  _135
REMARK   57  A    between atoms: _139  and  _141
REMARK   58  A    between atoms: _141  and  _142
REMARK   59  A    between atoms: _141  and  _144
REMARK   60  A    between atoms: _144  and  _145
REMARK   61  A    between atoms: _148  and  _150
REMARK   62  A    between atoms: _150  and  _151
REMARK   63  A    between atoms: _150  and  _153
REMARK   64  A    between atoms: _153  and  _154
REMARK   65  A    between atoms: _159  and  _160
REMARK   66  A    between atoms: _162  and  _164
REMARK   67  A    between atoms: _164  and  _165
REMARK   68  A    between atoms: _164  and  _167
REMARK   69  A    between atoms: _167  and  _168
REMARK   70  A    between atoms: _168  and  _169
REMARK   71  A    between atoms: _172  and  _174
REMARK   72  A    between atoms: _174  and  _175
REMARK   73  A    between atoms: _174  and  _177
REMARK   74  A    between atoms: _177  and  _178
REMARK   75  A    between atoms: _181  and  _183
REMARK   76  A    between atoms: _183  and  _184
REMARK   77  A    between atoms: _183  and  _186
REMARK   78  A    between atoms: _190  and  _191
REMARK   79  A    between atoms: _196  and  _198
REMARK   80  A    between atoms: _198  and  _199
REMARK   81  A    between atoms: _198  and  _201
REMARK   82  A    between atoms: _201  and  _202
REMARK   83  A    between atoms: _202  and  _203
REMARK   84  A    between atoms: _208  and  _210
REMARK   85  A    between atoms: _210  and  _211
REMARK   86  A    between atoms: _210  and  _213
REMARK   87  A    between atoms: _213  and  _214
REMARK   88  A    between atoms: _217  and  _219
REMARK   89  A    between atoms: _219  and  _220
REMARK   90  A    between atoms: _219  and  _222
REMARK   91  A    between atoms: _222  and  _223
REMARK   92  A    between atoms: _226  and  _228
REMARK   93  A    between atoms: _228  and  _229
REMARK   94  A    between atoms: _228  and  _231
REMARK   95  A    between atoms: _231  and  _232
REMARK   96  A    between atoms: _232  and  _233
REMARK   97  A    between atoms: _235  and  _237
REMARK   98  A    between atoms: _237  and  _238
REMARK   99  A    between atoms: _237  and  _240
REMARK  100  A    between atoms: _240  and  _241
REMARK  101  A    between atoms: _241  and  _242
REMARK  102  A    between atoms: _245  and  _247
REMARK  103  A    between atoms: _247  and  _248
REMARK  104  A    between atoms: _247  and  _250
REMARK  105  A    between atoms: _250  and  _251
REMARK  106  A    between atoms: _257  and  _259
REMARK  107  A    between atoms: _259  and  _260
REMARK  108  A    between atoms: _259  and  _262
REMARK  109  A    between atoms: _262  and  _263
REMARK  110  A    between atoms: _266  and  _268
REMARK  111  A    between atoms: _268  and  _269
REMARK  112  A    between atoms: _271  and  _273
REMARK  113  A    between atoms: _273  and  _274
REMARK  114  A    between atoms: _273  and  _276
REMARK  115  A    between atoms: _276  and  _277
REMARK  116  A    between atoms: _277  and  _278
REMARK  117  A    between atoms: _281  and  _283
REMARK  118  A    between atoms: _283  and  _284
REMARK  119  A    between atoms: _283  and  _286
REMARK  120  A    between atoms: _286  and  _287
REMARK  121  A    between atoms: _287  and  _288
REMARK  122  A    between atoms: _291  and  _293
REMARK  123  A    between atoms: _293  and  _294
REMARK  124  A    between atoms: _293  and  _296
REMARK  125  A    between atoms: _296  and  _297
REMARK  126  A    between atoms: _301  and  _302
REMARK  127  A    between atoms: _307  and  _309
REMARK  128  A    between atoms: _309  and  _310
REMARK  129  A    between atoms: _314  and  _315
REMARK  130  A    between atoms: _320  and  _322
REMARK  131  A    between atoms: _322  and  _323
REMARK  132  A    between atoms: _322  and  _325
REMARK  133  A    between atoms: _325  and  _326
REMARK  134  A    between atoms: _329  and  _331
REMARK  135  A    between atoms: _331  and  _332
REMARK  136  A    between atoms: _331  and  _334
REMARK  137  A    between atoms: _334  and  _335
REMARK  138  A    between atoms: _338  and  _340
REMARK  139  A    between atoms: _340  and  _341
REMARK  140  A    between atoms: _340  and  _343
REMARK  141  A    between atoms: _346  and  _348
REMARK  142  A    between atoms: _348  and  _349
REMARK  143  A    between atoms: _348  and  _351
REMARK  144  A    between atoms: _351  and  _352
REMARK  145  A    between atoms: _352  and  _353
REMARK  146  A    between atoms: _356  and  _358
REMARK  147  A    between atoms: _358  and  _359
REMARK  148  A    between atoms: _358  and  _361
REMARK  149  A    between atoms: _361  and  _362
REMARK  150  A    between atoms: _362  and  _363
REMARK  151  A    between atoms: _366  and  _368
REMARK  152  A    between atoms: _368  and  _369
REMARK  153  A    between atoms: _368  and  _371
REMARK  154  A    between atoms: _371  and  _372
REMARK  155  A    between atoms: _377  and  _378
REMARK  156  A    between atoms: _380  and  _382
REMARK  157  A    between atoms: _382  and  _383
REMARK  158  A    between atoms: _382  and  _385
REMARK  159  A    between atoms: _385  and  _386
REMARK  160  A    between atoms: _391  and  _393
REMARK  161  A    between atoms: _393  and  _394
REMARK  162  A    between atoms: _393  and  _396
REMARK  163  A    between atoms: _396  and  _397
REMARK  164  A    between atoms: _400  and  _402
REMARK  165  A    between atoms: _402  and  _403
REMARK  166  A    between atoms: _402  and  _405
REMARK  167  A    between atoms: _405  and  _406
REMARK  168  A    between atoms: _406  and  _407
REMARK  169  A    between atoms: _409  and  _411
REMARK  170  A    between atoms: _411  and  _412
REMARK  171  A    between atoms: _411  and  _414
REMARK  172  A    between atoms: _414  and  _415
REMARK  173  A    between atoms: _420  and  _421
REMARK  174  A    between atoms: _423  and  _425
REMARK  175  A    between atoms: _425  and  _426
REMARK  176  A    between atoms: _425  and  _428
REMARK  177  A    between atoms: _428  and  _429
REMARK  178  A    between atoms: _435  and  _437
REMARK  179  A    between atoms: _437  and  _438
REMARK  180  A    between atoms: _437  and  _440
REMARK  181  A    between atoms: _440  and  _441
REMARK  182  A    between atoms: _444  and  _446
REMARK  183  A    between atoms: _446  and  _447
REMARK  184  A    between atoms: _446  and  _449
REMARK  185  A    between atoms: _449  and  _450
REMARK  186  A    between atoms: _453  and  _455
REMARK  187  A    between atoms: _455  and  _456
REMARK  188  A    between atoms: _455  and  _458
REMARK  189  A    between atoms: _458  and  _459
REMARK  190  A    between atoms: _459  and  _460
REMARK  191  A    between atoms: _462  and  _464
REMARK  192  A    between atoms: _464  and  _465
REMARK                            x       y       z     vdW  Elec       q    Type
REMARK                         _______ _______ _______ _____ _____    ______ ____
ROOT
ATOM      1  CA  SER A   3       3.430  -1.613  24.258  0.00  0.00    +0.178 C 
ENDROOT
BRANCH   1   3
ATOM      2  C   ILE A   2       2.568   0.549  24.859  0.00  0.00    +0.241 C 
ATOM      3  N   SER A   3       2.894  -0.685  25.236  0.00  0.00    -0.295 N 
ATOM      4  H   SER A   3       2.765  -0.982  26.224  0.00  0.00    +0.150 HD
ATOM      5  O   ILE A   2       2.693   0.936  23.694  0.00  0.00    -0.273 OA
BRANCH   2   6
ATOM      6  CA  ILE A   2       2.062   1.493  25.936  0.00  0.00    +0.148 C 
BRANCH   6   8
ATOM      7  C   VAL A   1      -0.211   0.841  26.526  0.00  0.00    +0.238 C 
ATOM      8  N   ILE A   2       1.084   0.865  26.815  0.00  0.00    -0.297 N 
ATOM      9  H   ILE A   2       1.411   0.421  27.697  0.00  0.00    +0.150 HD
ATOM     10  O   VAL A   1      -0.682   1.327  25.487  0.00  0.00    -0.274 OA
BRANCH   7  11
ATOM     11  CA  VAL A   1      -1.114   0.186  27.570  0.00  0.00    +0.145 C 
BRANCH  11  12
ATOM     12  CB  VAL A   1      -1.741  -1.083  27.002  0.00  0.00    +0.025 C 
ATOM     13  CG2 VAL A   1      -2.509  -1.844  28.094  0.00  0.00    +0.002 C 
ATOM     14  CG1 VAL A   1      -0.652  -1.953  26.358  0.00  0.00    +0.002 C 
ENDBRANCH  11  12
BRANCH  11  15
ATOM     15  N   VAL A   1      -2.103   1.160  27.973  0.00  0.00    -0.238 NA
ATOM     16  H   VAL A   1      -2.995   1.255  27.447  0.00  0.00    +0.142 HD
ENDBRANCH  11  15
ENDBRANCH   7  11
ENDBRANCH   6   8
BRANCH   6  17
ATOM     17  CB  ILE A   2       3.287   2.016  26.711  0.00  0.00    +0.027 C 
ATOM     18  CG2 ILE A   2       4.182   2.793  25.770  0.00  0.00    +0.002 C 
BRANCH  17  19
ATOM     19  CG1 ILE A   2       2.843   2.899  27.880  0.00  0.00    +0.002 C 
ATOM     20  CD1 ILE A   2       1.807   3.921  27.459  0.00  0.00    +0.000 C 
ENDBRANCH  17  19
ENDBRANCH   6  17
ENDBRANCH   2   6
ENDBRANCH   1   3
BRANCH   1  21
ATOM     21  C   SER A   3       3.065  -3.014  24.635  0.00  0.00    +0.243 C 
ATOM     22  O   SER A   3       3.051  -3.343  25.811  0.00  0.00    -0.273 OA
ATOM     23  N   THR A   4       2.756  -3.840  23.647  0.00  0.00    -0.295 N 
ATOM     24  H   THR A   4       2.673  -3.470  22.678  0.00  0.00    +0.150 HD
BRANCH  23  25
ATOM     25  CA  THR A   4       2.529  -5.266  23.896  0.00  0.00    +0.176 C 
BRANCH  25  26
ATOM     26  C   THR A   4       3.491  -6.017  22.995  0.00  0.00    +0.243 C 
ATOM     27  N   GLY A   5       4.262  -6.919  23.575  0.00  0.00    -0.296 N 
ATOM     28  H   GLY A   5       4.088  -7.181  24.566  0.00  0.00    +0.150 HD
ATOM     29  O   THR A   4       3.488  -5.818  21.772  0.00  0.00    -0.273 OA
BRANCH  27  30
ATOM     30  CA  GLY A   5       5.350  -7.551  22.848  0.00  0.00    +0.163 C 
BRANCH  30  31
ATOM     31  C   GLY A   5       5.376  -9.040  23.083  0.00  0.00    +0.229 C 
ATOM     32  O   GLY A   5       4.468  -9.597  23.704  0.00  0.00    -0.286 OA
ENDBRANCH  30  31
ENDBRANCH  27  30
ENDBRANCH  25  26
BRANCH  25  33
ATOM     33  CB  THR A   4       1.098  -5.694  23.510  0.00  0.00    +0.137 C 
ATOM     34  CG2 THR A   4       0.061  -4.997  24.373  0.00  0.00    +0.034 C 
BRANCH  33  35
ATOM     35  OG1 THR A   4       0.871  -5.357  22.137  0.00  0.00    -0.382 OA
ATOM     36  HG1 THR A   4       0.974  -4.380  22.017  0.00  0.00    +0.210 HD
ENDBRANCH  33  35
ENDBRANCH  25  33
ENDBRANCH  23  25
ENDBRANCH   1  21
BRANCH   1  37
ATOM     37  CB  SER A   3       4.957  -1.503  24.193  0.00  0.00    +0.166 C 
BRANCH  37  38
ATOM     38  OG  SER A   3       5.489  -2.578  23.436  0.00  0.00    -0.380 OA
ATOM     39  H   SER A   3       6.475  -2.498  23.400  0.00  0.00    +0.211 HD
ENDBRANCH  37  38
ENDBRANCH   1  37
TORSDOF 17
REMARK  Name = ../refined-set-2016/3re4/3re4_pocket.pdb
REMARK  192 active torsions:
REMARK  status: ('A' for Active; 'I' for Inactive)
REMARK    1  A    between atoms: _1  and  _3
REMARK    2  A    between atoms: _3  and  _4
REMARK    3  A    between atoms: _3  and  _6
REMARK    4  A    between atoms: _9  and  _11
REMARK    5  A    between atoms: _11  and  _12
REMARK    6  A    between atoms: _11  and  _14
REMARK    7  A    between atoms: _14  and  _15
REMARK    8  A    between atoms: _18  and  _20
REMARK    9  A    between atoms: _20  and  _21
REMARK   10  A    between atoms: _20  and  _23
REMARK   11  A    between atoms: _23  and  _24
REMARK   12  A    between atoms: _26  and  _28
REMARK   13  A    between atoms: _28  and  _29
REMARK   14  A    between atoms: _28  and  _31
REMARK   15  A    between atoms: _31  and  _32
REMARK   16  A    between atoms: _35  and  _37
REMARK   17  A    between atoms: _37  and  _38
REMARK   18  A    between atoms: _40  and  _42
REMARK   19  A    between atoms: _42  and  _43
REMARK   20  A    between atoms: _46  and  _48
REMARK   21  A    between atoms: _48  and  _49
REMARK   22  A    between atoms: _48  and  _51
REMARK   23  A    between atoms: _51  and  _52
REMARK   24  A    between atoms: _57  and  _59
REMARK   25  A    between atoms: _59  and  _60
REMARK   26  A    between atoms: _59  and  _62
REMARK   27  A    between atoms: _65  and  _67
REMARK   28  A    between atoms: _67  and  _68
REMARK   29  A    between atoms: _67  and  _70
REMARK   30  A    between atoms: _70  and  _71
REMARK   31  A    between atoms: _77  and  _79
REMARK   32  A    between atoms: _79  and  _80
REMARK   33  A    between atoms: _79  and  _82
REMARK   34  A    between atoms: _82  and  _83
REMARK   35  A    between atoms: _88  and  _89
REMARK   36  A    between atoms: _91  and  _93
REMARK   37  A    between atoms: _93  and  _94
REMARK   38  A    between atoms: _97  and  _99
REMARK   39  A    between atoms: _99  and  _100
REMARK   40  A    between atoms: _103  and  _105
REMARK   41  A    between atoms: _105  and  _106
REMARK   42  A    between atoms: _105  and  _108
REMARK   43  A    between atoms: _108  and  _109
REMARK   44  A    between atoms: _109  and  _110
REMARK   45  A    between atoms: _112  and  _114
REMARK   46  A    between atoms: _114  and  _115
REMARK   47  A    between atoms: _118  and  _120
REMARK   48  A    between atoms: _120  and  _121
REMARK   49  A    between atoms: _120  and  _123
REMARK   50  A    between atoms: _126  and  _128
REMARK   51  A    between atoms: _128  and  _129
REMARK   52  A    between atoms: _128  and  _131
REMARK   53  A    between atoms: _131  and  _132
REMARK   54  A    between atoms: _132  and  _133
REMARK   55  A    between atoms: _133  and  _134
REMARK   56  A    between atoms: _134  and  _135
REMARK   57  A    between atoms: _139  and  _141
REMARK   58  A    between atoms: _141  and  _142
REMARK   59  A    between atoms: _141  and  _144
REMARK   60  A    between atoms: _144  and  _145
REMARK   61  A    between atoms: _148  and  _150
REMARK   62  A    between atoms: _150  and  _151
REMARK   63  A    between atoms: _150  and  _153
REMARK   64  A    between atoms: _153  and  _154
REMARK   65  A    between atoms: _159  and  _160
REMARK   66  A    between atoms: _162  and  _164
REMARK   67  A    between atoms: _164  and  _165
REMARK   68  A    between atoms: _164  and  _167
REMARK   69  A    between atoms: _167  and  _168
REMARK   70  A    between atoms: _168  and  _169
REMARK   71  A    between atoms: _172  and  _174
REMARK   72  A    between atoms: _174  and  _175
REMARK   73  A    between atoms: _174  and  _177
REMARK   74  A    between atoms: _177  and  _178
REMARK   75  A    between atoms: _181  and  _183
REMARK   76  A    between atoms: _183  and  _184
REMARK   77  A    between atoms: _183  and  _186
REMARK   78  A    between atoms: _190  and  _191
REMARK   79  A    between atoms: _196  and  _198
REMARK   80  A    between atoms: _198  and  _199
REMARK   81  A    between atoms: _198  and  _201
REMARK   82  A    between atoms: _201  and  _202
REMARK   83  A    between atoms: _202  and  _203
REMARK   84  A    between atoms: _208  and  _210
REMARK   85  A    between atoms: _210  and  _211
REMARK   86  A    between atoms: _210  and  _213
REMARK   87  A    between atoms: _213  and  _214
REMARK   88  A    between atoms: _217  and  _219
REMARK   89  A    between atoms: _219  and  _220
REMARK   90  A    between atoms: _219  and  _222
REMARK   91  A    between atoms: _222  and  _223
REMARK   92  A    between atoms: _226  and  _228
REMARK   93  A    between atoms: _228  and  _229
REMARK   94  A    between atoms: _228  and  _231
REMARK   95  A    between atoms: _231  and  _232
REMARK   96  A    between atoms: _232  and  _233
REMARK   97  A    between atoms: _235  and  _237
REMARK   98  A    between atoms: _237  and  _238
REMARK   99  A    between atoms: _237  and  _240
REMARK  100  A    between atoms: _240  and  _241
REMARK  101  A    between atoms: _241  and  _242
REMARK  102  A    between atoms: _245  and  _247
REMARK  103  A    between atoms: _247  and  _248
REMARK  104  A    between atoms: _247  and  _250
REMARK  105  A    between atoms: _250  and  _251
REMARK  106  A    between atoms: _257  and  _259
REMARK  107  A    between atoms: _259  and  _260
REMARK  108  A    between atoms: _259  and  _262
REMARK  109  A    between atoms: _262  and  _263
REMARK  110  A    between atoms: _266  and  _268
REMARK  111  A    between atoms: _268  and  _269
REMARK  112  A    between atoms: _271  and  _273
REMARK  113  A    between atoms: _273  and  _274
REMARK  114  A    between atoms: _273  and  _276
REMARK  115  A    between atoms: _276  and  _277
REMARK  116  A    between atoms: _277  and  _278
REMARK  117  A    between atoms: _281  and  _283
REMARK  118  A    between atoms: _283  and  _284
REMARK  119  A    between atoms: _283  and  _286
REMARK  120  A    between atoms: _286  and  _287
REMARK  121  A    between atoms: _287  and  _288
REMARK  122  A    between atoms: _291  and  _293
REMARK  123  A    between atoms: _293  and  _294
REMARK  124  A    between atoms: _293  and  _296
REMARK  125  A    between atoms: _296  and  _297
REMARK  126  A    between atoms: _301  and  _302
REMARK  127  A    between atoms: _307  and  _309
REMARK  128  A    between atoms: _309  and  _310
REMARK  129  A    between atoms: _314  and  _315
REMARK  130  A    between atoms: _320  and  _322
REMARK  131  A    between atoms: _322  and  _323
REMARK  132  A    between atoms: _322  and  _325
REMARK  133  A    between atoms: _325  and  _326
REMARK  134  A    between atoms: _329  and  _331
REMARK  135  A    between atoms: _331  and  _332
REMARK  136  A    between atoms: _331  and  _334
REMARK  137  A    between atoms: _334  and  _335
REMARK  138  A    between atoms: _338  and  _340
REMARK  139  A    between atoms: _340  and  _341
REMARK  140  A    between atoms: _340  and  _343
REMARK  141  A    between atoms: _346  and  _348
REMARK  142  A    between atoms: _348  and  _349
REMARK  143  A    between atoms: _348  and  _351
REMARK  144  A    between atoms: _351  and  _352
REMARK  145  A    between atoms: _352  and  _353
REMARK  146  A    between atoms: _356  and  _358
REMARK  147  A    between atoms: _358  and  _359
REMARK  148  A    between atoms: _358  and  _361
REMARK  149  A    between atoms: _361  and  _362
REMARK  150  A    between atoms: _362  and  _363
REMARK  151  A    between atoms: _366  and  _368
REMARK  152  A    between atoms: _368  and  _369
REMARK  153  A    between atoms: _368  and  _371
REMARK  154  A    between atoms: _371  and  _372
REMARK  155  A    between atoms: _377  and  _378
REMARK  156  A    between atoms: _380  and  _382
REMARK  157  A    between atoms: _382  and  _383
REMARK  158  A    between atoms: _382  and  _385
REMARK  159  A    between atoms: _385  and  _386
REMARK  160  A    between atoms: _391  and  _393
REMARK  161  A    between atoms: _393  and  _394
REMARK  162  A    between atoms: _393  and  _396
REMARK  163  A    between atoms: _396  and  _397
REMARK  164  A    between atoms: _400  and  _402
REMARK  165  A    between atoms: _402  and  _403
REMARK  166  A    between atoms: _402  and  _405
REMARK  167  A    between atoms: _405  and  _406
REMARK  168  A    between atoms: _406  and  _407
REMARK  169  A    between atoms: _409  and  _411
REMARK  170  A    between atoms: _411  and  _412
REMARK  171  A    between atoms: _411  and  _414
REMARK  172  A    between atoms: _414  and  _415
REMARK  173  A    between atoms: _420  and  _421
REMARK  174  A    between atoms: _423  and  _425
REMARK  175  A    between atoms: _425  and  _426
REMARK  176  A    between atoms: _425  and  _428
REMARK  177  A    between atoms: _428  and  _429
REMARK  178  A    between atoms: _435  and  _437
REMARK  179  A    between atoms: _437  and  _438
REMARK  180  A    between atoms: _437  and  _440
REMARK  181  A    between atoms: _440  and  _441
REMARK  182  A    between atoms: _444  and  _446
REMARK  183  A    between atoms: _446  and  _447
REMARK  184  A    between atoms: _446  and  _449
REMARK  185  A    between atoms: _449  and  _450
REMARK  186  A    between atoms: _453  and  _455
REMARK  187  A    between atoms: _455  and  _456
REMARK  188  A    between atoms: _455  and  _458
REMARK  189  A    between atoms: _458  and  _459
REMARK  190  A    between atoms: _459  and  _460
REMARK  191  A    between atoms: _462  and  _464
REMARK  192  A    between atoms: _464  and  _465
REMARK                            x       y       z     vdW  Elec       q    Type
REMARK                         _______ _______ _______ _____ _____    ______ ____
ROOT
ATOM      1  CA  PHE A   4       2.077   0.153  30.720  0.00  0.00    +0.153 C 
ENDROOT
BRANCH   1   2
ATOM      2  C   PHE A   4       2.429   1.473  31.345  0.00  0.00    +0.241 C 
ATOM      3  O   PHE A   4       3.480   1.605  31.955  0.00  0.00    -0.273 OA
ATOM      4  N   TYR A   5       1.530   2.445  31.230  0.00  0.00    -0.297 N 
ATOM      5  H   TYR A   5       0.718   2.329  30.591  0.00  0.00    +0.150 HD
BRANCH   4   6
ATOM      6  CA  TYR A   5       1.682   3.672  31.999  0.00  0.00    +0.153 C 
BRANCH   6   7
ATOM      7  C   TYR A   5       1.123   3.470  33.416  0.00  0.00    +0.241 C 
ATOM      8  N   ALA A   6       1.744   4.092  34.423  0.00  0.00    -0.298 N 
ATOM      9  H   ALA A   6       2.669   4.534  34.251  0.00  0.00    +0.150 HD
ATOM     10  O   TYR A   5       0.138   2.766  33.590  0.00  0.00    -0.273 OA
BRANCH   8  11
ATOM     11  CA  ALA A   6       1.159   4.167  35.756  0.00  0.00    +0.137 C 
ATOM     12  CB  ALA A   6       1.586   3.007  36.599  0.00  0.00    +0.030 C 
BRANCH  11  13
ATOM     13  C   ALA A   6       1.494   5.472  36.487  0.00  0.00    +0.227 C 
ATOM     14  O   ALA A   6       2.594   6.041  36.345  0.00  0.00    -0.286 OA
ENDBRANCH  11  13
ENDBRANCH   8  11
ENDBRANCH   6   7
BRANCH   6  15
ATOM     15  CB  TYR A   5       0.965   4.848  31.315  0.00  0.00    +0.055 C 
BRANCH  15  16
ATOM     16  CG  TYR A   5       1.054   6.101  32.159  0.00  0.00    -0.020 A 
ATOM     17  CD2 TYR A   5       0.092   6.373  33.132  0.00  0.00    -0.001 A 
ATOM     18  CE2 TYR A   5       0.181   7.496  33.923  0.00  0.00    +0.036 A 
ATOM     19  CZ  TYR A   5       1.267   8.360  33.761  0.00  0.00    +0.134 A 
ATOM     20  CE1 TYR A   5       2.235   8.104  32.802  0.00  0.00    +0.036 A 
ATOM     21  CD1 TYR A   5       2.128   6.979  32.022  0.00  0.00    -0.001 A 
BRANCH  19  22
ATOM     22  OH  TYR A   5       1.385   9.485  34.568  0.00  0.00    -0.506 OA
ATOM     23  HH  TYR A   5       1.440   9.205  35.516  0.00  0.00    +0.292 HD
ENDBRANCH  19  22
ENDBRANCH  15  16
ENDBRANCH   6  15
ENDBRANCH   4   6
ENDBRANCH   1   2
BRANCH   1  25
ATOM     24  C   VAL A   3       3.463  -1.118  29.117  0.00  0.00    +0.241 C 
ATOM     25  N   PHE A   4       3.250  -0.649  30.354  0.00  0.00    -0.297 N 
ATOM     26  H   PHE A   4       3.951  -0.864  31.091  0.00  0.00    +0.150 HD
ATOM     27  O   VAL A   3       2.706  -0.912  28.170  0.00  0.00    -0.273 OA
BRANCH  24  28
ATOM     28  CA  VAL A   3       4.736  -1.923  28.891  0.00  0.00    +0.149 C 
BRANCH  28  31
ATOM     29  C   ASN A   2       4.759  -4.320  28.699  0.00  0.00    +0.241 C 
ATOM     30  O   ASN A   2       5.286  -4.378  29.800  0.00  0.00    -0.273 OA
ATOM     31  N   VAL A   3       4.440  -3.154  28.156  0.00  0.00    -0.297 N 
ATOM     32  H   VAL A   3       3.986  -3.114  27.221  0.00  0.00    +0.150 HD
BRANCH  29  33
ATOM     33  CA  ASN A   2       4.470  -5.606  27.915  0.00  0.00    +0.158 C 
BRANCH  33  35
ATOM     34  C   ALA A   1       6.223  -7.162  27.225  0.00  0.00    +0.238 C 
ATOM     35  N   ASN A   2       5.486  -6.611  28.182  0.00  0.00    -0.297 N 
ATOM     36  H   ASN A   2       5.642  -6.911  29.165  0.00  0.00    +0.150 HD
ATOM     37  O   ALA A   1       5.972  -7.036  26.013  0.00  0.00    -0.274 OA
BRANCH  34  38
ATOM     38  CA  ALA A   1       7.413  -7.996  27.709  0.00  0.00    +0.145 C 
ATOM     39  CB  ALA A   1       8.582  -7.091  28.024  0.00  0.00    +0.028 C 
BRANCH  38  40
ATOM     40  N   ALA A   1       7.791  -8.957  26.691  0.00  0.00    -0.238 NA
ATOM     41  H   ALA A   1       7.671  -8.689  25.693  0.00  0.00    +0.142 HD
ENDBRANCH  38  40
ENDBRANCH  34  38
ENDBRANCH  33  35
BRANCH  33  42
ATOM     42  CB  ASN A   2       3.104  -6.179  28.268  0.00  0.00    +0.114 C 
BRANCH  42  43
ATOM     43  CG  ASN A   2       2.765  -7.389  27.441  0.00  0.00    +0.222 C 
ATOM     44  ND2 ASN A   2       2.902  -8.583  28.022  0.00  0.00    -0.329 N 
ATOM     45 HD21 ASN A   2       3.211  -8.647  29.013  0.00  0.00    +0.145 HD
ATOM     46 HD22 ASN A   2       2.699  -9.450  27.484  0.00  0.00    +0.145 HD
ATOM     47  OD1 ASN A   2       2.401  -7.254  26.268  0.00  0.00    -0.275 OA
ENDBRANCH  42  43
ENDBRANCH  33  42
ENDBRANCH  29  33
ENDBRANCH  28  31
BRANCH  28  48
ATOM     48  CB  VAL A   3       5.779  -1.036  28.152  0.00  0.00    +0.027 C 
ATOM     49  CG2 VAL A   3       5.957   0.330  28.851  0.00  0.00    +0.002 C 
ATOM     50  CG1 VAL A   3       7.136  -1.747  28.008  0.00  0.00    +0.002 C 
ENDBRANCH  28  48
ENDBRANCH  24  28
ENDBRANCH   1  25
BRANCH   1  51
ATOM     51  CB  PHE A   4       1.242  -0.612  31.743  0.00  0.00    +0.055 C 
BRANCH  51  52
ATOM     52  CG  PHE A   4       0.937  -1.989  31.319  0.00  0.00    -0.020 A 
ATOM     53  CD2 PHE A   4       1.851  -3.004  31.545  0.00  0.00    -0.004 A 
ATOM     54  CE2 PHE A   4       1.595  -4.299  31.127  0.00  0.00    -0.000 A 
ATOM     55  CZ  PHE A   4       0.409  -4.574  30.452  0.00  0.00    -0.000 A 
ATOM     56  CE1 PHE A   4      -0.500  -3.566  30.199  0.00  0.00    -0.000 A 
ATOM     57  CD1 PHE A   4      -0.231  -2.267  30.614  0.00  0.00    -0.004 A 
ENDBRANCH  51  52
ENDBRANCH   1  51
TORSDOF 20
REMARK  Name = ../refined-set-2016/3re4/3re4_pocket.pdb
REMARK  192 active torsions:
REMARK  status: ('A' for Active; 'I' for Inactive)
REMARK    1  A    between atoms: _1  and  _3
REMARK    2  A    between atoms: _3  and  _4
REMARK    3  A    between atoms: _3  and  _6
REMARK    4  A    between atoms: _9  and  _11
REMARK    5  A    between atoms: _11  and  _12
REMARK    6  A    between atoms: _11  and  _14
REMARK    7  A    between atoms: _14  and  _15
REMARK    8  A    between atoms: _18  and  _20
REMARK    9  A    between atoms: _20  and  _21
REMARK   10  A    between atoms: _20  and  _23
REMARK   11  A    between atoms: _23  and  _24
REMARK   12  A    between atoms: _26  and  _28
REMARK   13  A    between atoms: _28  and  _29
REMARK   14  A    between atoms: _28  and  _31
REMARK   15  A    between atoms: _31  and  _32
REMARK   16  A    between atoms: _35  and  _37
REMARK   17  A    between atoms: _37  and  _38
REMARK   18  A    between atoms: _40  and  _42
REMARK   19  A    between atoms: _42  and  _43
REMARK   20  A    between atoms: _46  and  _48
REMARK   21  A    between atoms: _48  and  _49
REMARK   22  A    between atoms: _48  and  _51
REMARK   23  A    between atoms: _51  and  _52
REMARK   24  A    between atoms: _57  and  _59
REMARK   25  A    between atoms: _59  and  _60
REMARK   26  A    between atoms: _59  and  _62
REMARK   27  A    between atoms: _65  and  _67
REMARK   28  A    between atoms: _67  and  _68
REMARK   29  A    between atoms: _67  and  _70
REMARK   30  A    between atoms: _70  and  _71
REMARK   31  A    between atoms: _77  and  _79
REMARK   32  A    between atoms: _79  and  _80
REMARK   33  A    between atoms: _79  and  _82
REMARK   34  A    between atoms: _82  and  _83
REMARK   35  A    between atoms: _88  and  _89
REMARK   36  A    between atoms: _91  and  _93
REMARK   37  A    between atoms: _93  and  _94
REMARK   38  A    between atoms: _97  and  _99
REMARK   39  A    between atoms: _99  and  _100
REMARK   40  A    between atoms: _103  and  _105
REMARK   41  A    between atoms: _105  and  _106
REMARK   42  A    between atoms: _105  and  _108
REMARK   43  A    between atoms: _108  and  _109
REMARK   44  A    between atoms: _109  and  _110
REMARK   45  A    between atoms: _112  and  _114
REMARK   46  A    between atoms: _114  and  _115
REMARK   47  A    between atoms: _118  and  _120
REMARK   48  A    between atoms: _120  and  _121
REMARK   49  A    between atoms: _120  and  _123
REMARK   50  A    between atoms: _126  and  _128
REMARK   51  A    between atoms: _128  and  _129
REMARK   52  A    between atoms: _128  and  _131
REMARK   53  A    between atoms: _131  and  _132
REMARK   54  A    between atoms: _132  and  _133
REMARK   55  A    between atoms: _133  and  _134
REMARK   56  A    between atoms: _134  and  _135
REMARK   57  A    between atoms: _139  and  _141
REMARK   58  A    between atoms: _141  and  _142
REMARK   59  A    between atoms: _141  and  _144
REMARK   60  A    between atoms: _144  and  _145
REMARK   61  A    between atoms: _148  and  _150
REMARK   62  A    between atoms: _150  and  _151
REMARK   63  A    between atoms: _150  and  _153
REMARK   64  A    between atoms: _153  and  _154
REMARK   65  A    between atoms: _159  and  _160
REMARK   66  A    between atoms: _162  and  _164
REMARK   67  A    between atoms: _164  and  _165
REMARK   68  A    between atoms: _164  and  _167
REMARK   69  A    between atoms: _167  and  _168
REMARK   70  A    between atoms: _168  and  _169
REMARK   71  A    between atoms: _172  and  _174
REMARK   72  A    between atoms: _174  and  _175
REMARK   73  A    between atoms: _174  and  _177
REMARK   74  A    between atoms: _177  and  _178
REMARK   75  A    between atoms: _181  and  _183
REMARK   76  A    between atoms: _183  and  _184
REMARK   77  A    between atoms: _183  and  _186
REMARK   78  A    between atoms: _190  and  _191
REMARK   79  A    between atoms: _196  and  _198
REMARK   80  A    between atoms: _198  and  _199
REMARK   81  A    between atoms: _198  and  _201
REMARK   82  A    between atoms: _201  and  _202
REMARK   83  A    between atoms: _202  and  _203
REMARK   84  A    between atoms: _208  and  _210
REMARK   85  A    between atoms: _210  and  _211
REMARK   86  A    between atoms: _210  and  _213
REMARK   87  A    between atoms: _213  and  _214
REMARK   88  A    between atoms: _217  and  _219
REMARK   89  A    between atoms: _219  and  _220
REMARK   90  A    between atoms: _219  and  _222
REMARK   91  A    between atoms: _222  and  _223
REMARK   92  A    between atoms: _226  and  _228
REMARK   93  A    between atoms: _228  and  _229
REMARK   94  A    between atoms: _228  and  _231
REMARK   95  A    between atoms: _231  and  _232
REMARK   96  A    between atoms: _232  and  _233
REMARK   97  A    between atoms: _235  and  _237
REMARK   98  A    between atoms: _237  and  _238
REMARK   99  A    between atoms: _237  and  _240
REMARK  100  A    between atoms: _240  and  _241
REMARK  101  A    between atoms: _241  and  _242
REMARK  102  A    between atoms: _245  and  _247
REMARK  103  A    between atoms: _247  and  _248
REMARK  104  A    between atoms: _247  and  _250
REMARK  105  A    between atoms: _250  and  _251
REMARK  106  A    between atoms: _257  and  _259
REMARK  107  A    between atoms: _259  and  _260
REMARK  108  A    between atoms: _259  and  _262
REMARK  109  A    between atoms: _262  and  _263
REMARK  110  A    between atoms: _266  and  _268
REMARK  111  A    between atoms: _268  and  _269
REMARK  112  A    between atoms: _271  and  _273
REMARK  113  A    between atoms: _273  and  _274
REMARK  114  A    between atoms: _273  and  _276
REMARK  115  A    between atoms: _276  and  _277
REMARK  116  A    between atoms: _277  and  _278
REMARK  117  A    between atoms: _281  and  _283
REMARK  118  A    between atoms: _283  and  _284
REMARK  119  A    between atoms: _283  and  _286
REMARK  120  A    between atoms: _286  and  _287
REMARK  121  A    between atoms: _287  and  _288
REMARK  122  A    between atoms: _291  and  _293
REMARK  123  A    between atoms: _293  and  _294
REMARK  124  A    between atoms: _293  and  _296
REMARK  125  A    between atoms: _296  and  _297
REMARK  126  A    between atoms: _301  and  _302
REMARK  127  A    between atoms: _307  and  _309
REMARK  128  A    between atoms: _309  and  _310
REMARK  129  A    between atoms: _314  and  _315
REMARK  130  A    between atoms: _320  and  _322
REMARK  131  A    between atoms: _322  and  _323
REMARK  132  A    between atoms: _322  and  _325
REMARK  133  A    between atoms: _325  and  _326
REMARK  134  A    between atoms: _329  and  _331
REMARK  135  A    between atoms: _331  and  _332
REMARK  136  A    between atoms: _331  and  _334
REMARK  137  A    between atoms: _334  and  _335
REMARK  138  A    between atoms: _338  and  _340
REMARK  139  A    between atoms: _340  and  _341
REMARK  140  A    between atoms: _340  and  _343
REMARK  141  A    between atoms: _346  and  _348
REMARK  142  A    between atoms: _348  and  _349
REMARK  143  A    between atoms: _348  and  _351
REMARK  144  A    between atoms: _351  and  _352
REMARK  145  A    between atoms: _352  and  _353
REMARK  146  A    between atoms: _356  and  _358
REMARK  147  A    between atoms: _358  and  _359
REMARK  148  A    between atoms: _358  and  _361
REMARK  149  A    between atoms: _361  and  _362
REMARK  150  A    between atoms: _362  and  _363
REMARK  151  A    between atoms: _366  and  _368
REMARK  152  A    between atoms: _368  and  _369
REMARK  153  A    between atoms: _368  and  _371
REMARK  154  A    between atoms: _371  and  _372
REMARK  155  A    between atoms: _377  and  _378
REMARK  156  A    between atoms: _380  and  _382
REMARK  157  A    between atoms: _382  and  _383
REMARK  158  A    between atoms: _382  and  _385
REMARK  159  A    between atoms: _385  and  _386
REMARK  160  A    between atoms: _391  and  _393
REMARK  161  A    between atoms: _393  and  _394
REMARK  162  A    between atoms: _393  and  _396
REMARK  163  A    between atoms: _396  and  _397
REMARK  164  A    between atoms: _400  and  _402
REMARK  165  A    between atoms: _402  and  _403
REMARK  166  A    between atoms: _402  and  _405
REMARK  167  A    between atoms: _405  and  _406
REMARK  168  A    between atoms: _406  and  _407
REMARK  169  A    between atoms: _409  and  _411
REMARK  170  A    between atoms: _411  and  _412
REMARK  171  A    between atoms: _411  and  _414
REMARK  172  A    between atoms: _414  and  _415
REMARK  173  A    between atoms: _420  and  _421
REMARK  174  A    between atoms: _423  and  _425
REMARK  175  A    between atoms: _425  and  _426
REMARK  176  A    between atoms: _425  and  _428
REMARK  177  A    between atoms: _428  and  _429
REMARK  178  A    between atoms: _435  and  _437
REMARK  179  A    between atoms: _437  and  _438
REMARK  180  A    between atoms: _437  and  _440
REMARK  181  A    between atoms: _440  and  _441
REMARK  182  A    between atoms: _444  and  _446
REMARK  183  A    between atoms: _446  and  _447
REMARK  184  A    between atoms: _446  and  _449
REMARK  185  A    between atoms: _449  and  _450
REMARK  186  A    between atoms: _453  and  _455
REMARK  187  A    between atoms: _455  and  _456
REMARK  188  A    between atoms: _455  and  _458
REMARK  189  A    between atoms: _458  and  _459
REMARK  190  A    between atoms: _459  and  _460
REMARK  191  A    between atoms: _462  and  _464
REMARK  192  A    between atoms: _464  and  _465
REMARK                            x       y       z     vdW  Elec       q    Type
REMARK                         _______ _______ _______ _____ _____    ______ ____
ROOT
ATOM      1  CA  LYS A   5       7.546  -2.937  32.209  0.00  0.00    +0.149 C 
ENDROOT
BRANCH   1   2
ATOM      2  C   LYS A   5       7.454  -4.333  32.797  0.00  0.00    +0.241 C 
ATOM      3  O   LYS A   5       8.043  -4.620  33.831  0.00  0.00    -0.273 OA
ATOM      4  N   ILE A   6       6.675  -5.187  32.141  0.00  0.00    -0.297 N 
ATOM      5  H   ILE A   6       6.270  -4.911  31.223  0.00  0.00    +0.150 HD
BRANCH   4   6
ATOM      6  CA  ILE A   6       6.381  -6.500  32.688  0.00  0.00    +0.149 C 
BRANCH   6   7
ATOM      7  C   ILE A   6       6.824  -7.617  31.744  0.00  0.00    +0.241 C 
ATOM      8  N   TYR A   7       7.736  -8.460  32.212  0.00  0.00    -0.298 N 
ATOM      9  H   TYR A   7       8.174  -8.279  33.138  0.00  0.00    +0.150 HD
ATOM     10  O   ILE A   6       6.325  -7.731  30.619  0.00  0.00    -0.273 OA
BRANCH   8  11
ATOM     11  CA  TYR A   7       8.134  -9.643  31.442  0.00  0.00    +0.141 C 
BRANCH  11  12
ATOM     12  C   TYR A   7       7.095 -10.768  31.575  0.00  0.00    +0.227 C 
ATOM     13  O   TYR A   7       6.646 -11.082  32.682  0.00  0.00    -0.286 OA
ENDBRANCH  11  12
BRANCH  11  14
ATOM     14  CB  TYR A   7       9.493 -10.125  31.924  0.00  0.00    +0.054 C 
BRANCH  14  15
ATOM     15  CG  TYR A   7      10.617  -9.278  31.411  0.00  0.00    -0.020 A 
ATOM     16  CD2 TYR A   7      11.256  -8.369  32.236  0.00  0.00    -0.001 A 
ATOM     17  CE2 TYR A   7      12.293  -7.586  31.761  0.00  0.00    +0.036 A 
ATOM     18  CZ  TYR A   7      12.688  -7.700  30.438  0.00  0.00    +0.134 A 
ATOM     19  CE1 TYR A   7      12.066  -8.585  29.591  0.00  0.00    +0.036 A 
ATOM     20  CD1 TYR A   7      11.029  -9.373  30.080  0.00  0.00    -0.001 A 
BRANCH  18  21
ATOM     21  OH  TYR A   7      13.723  -6.933  29.988  0.00  0.00    -0.506 OA
ATOM     22  HH  TYR A   7      13.495  -5.976  30.098  0.00  0.00    +0.292 HD
ENDBRANCH  18  21
ENDBRANCH  14  15
ENDBRANCH  11  14
ENDBRANCH   8  11
ENDBRANCH   6   7
BRANCH   6  23
ATOM     23  CB  ILE A   6       4.872  -6.644  32.915  0.00  0.00    +0.027 C 
ATOM     24  CG2 ILE A   6       4.553  -7.992  33.521  0.00  0.00    +0.002 C 
BRANCH  23  25
ATOM     25  CG1 ILE A   6       4.357  -5.502  33.803  0.00  0.00    +0.002 C 
ATOM     26  CD1 ILE A   6       2.865  -5.613  34.158  0.00  0.00    +0.000 C 
ENDBRANCH  23  25
ENDBRANCH   6  23
ENDBRANCH   4   6
ENDBRANCH   1   2
BRANCH   1  28
ATOM     27  C   VAL A   4       6.017  -1.349  33.134  0.00  0.00    +0.241 C 
ATOM     28  N   LYS A   5       7.188  -1.964  33.233  0.00  0.00    -0.297 N 
ATOM     29  H   LYS A   5       7.834  -1.757  34.021  0.00  0.00    +0.150 HD
ATOM     30  O   VAL A   4       5.241  -1.566  32.195  0.00  0.00    -0.273 OA
BRANCH  27  31
ATOM     31  CA  VAL A   4       5.673  -0.325  34.206  0.00  0.00    +0.149 C 
BRANCH  31  34
ATOM     32  C   ALA A   3       6.591   1.875  33.712  0.00  0.00    +0.241 C 
ATOM     33  O   ALA A   3       7.505   1.739  34.528  0.00  0.00    -0.273 OA
ATOM     34  N   VAL A   4       5.658   0.963  33.517  0.00  0.00    -0.297 N 
ATOM     35  H   VAL A   4       4.886   1.168  32.851  0.00  0.00    +0.150 HD
BRANCH  32  36
ATOM     36  CA  ALA A   3       6.446   3.131  32.889  0.00  0.00    +0.149 C 
ATOM     37  CB  ALA A   3       7.506   3.208  31.795  0.00  0.00    +0.031 C 
BRANCH  36  39
ATOM     38  C   MET A   2       5.576   4.818  34.321  0.00  0.00    +0.241 C 
ATOM     39  N   ALA A   3       6.626   4.167  33.859  0.00  0.00    -0.297 N 
ATOM     40  H   ALA A   3       7.580   4.406  34.198  0.00  0.00    +0.150 HD
ATOM     41  O   MET A   2       4.467   4.813  33.762  0.00  0.00    -0.273 OA
BRANCH  38  42
ATOM     42  CA  MET A   2       5.818   5.570  35.610  0.00  0.00    +0.149 C 
BRANCH  42  45
ATOM     43  C   ALA A   1       5.657   7.987  35.850  0.00  0.00    +0.238 C 
ATOM     44  O   ALA A   1       6.898   8.116  35.801  0.00  0.00    -0.274 OA
ATOM     45  N   MET A   2       5.044   6.813  35.730  0.00  0.00    -0.297 N 
ATOM     46  H   MET A   2       4.005   6.774  35.721  0.00  0.00    +0.150 HD
BRANCH  43  47
ATOM     47  CA  ALA A   1       4.757   9.200  36.061  0.00  0.00    +0.145 C 
ATOM     48  CB  ALA A   1       4.782  10.113  34.832  0.00  0.00    +0.028 C 
BRANCH  47  49
ATOM     49  N   ALA A   1       5.246   9.913  37.250  0.00  0.00    -0.238 NA
ATOM     50  H   ALA A   1       5.789  10.792  37.129  0.00  0.00    +0.142 HD
ENDBRANCH  47  49
ENDBRANCH  43  47
ENDBRANCH  42  45
BRANCH  42  51
ATOM     51  CB  MET A   2       5.470   4.614  36.745  0.00  0.00    +0.041 C 
BRANCH  51  52
ATOM     52  CG  MET A   2       5.753   5.154  38.118  0.00  0.00    +0.060 C 
BRANCH  52  53
ATOM     53  SD  MET A   2       5.424   3.850  39.336  0.00  0.00    -0.139 S 
ATOM     54  CE  MET A   2       7.064   3.660  39.967  0.00  0.00    +0.069 C 
ENDBRANCH  52  53
ENDBRANCH  51  52
ENDBRANCH  42  51
ENDBRANCH  38  42
ENDBRANCH  36  39
ENDBRANCH  32  36
ENDBRANCH  31  34
BRANCH  31  55
ATOM     55  CB  VAL A   4       4.287  -0.605  34.800  0.00  0.00    +0.027 C 
ATOM     56  CG2 VAL A   4       3.866   0.550  35.701  0.00  0.00    +0.002 C 
ATOM     57  CG1 VAL A   4       4.257  -1.936  35.570  0.00  0.00    +0.002 C 
ENDBRANCH  31  55
ENDBRANCH  27  31
ENDBRANCH   1  28
BRANCH   1  58
ATOM     58  CB  LYS A   5       8.932  -2.652  31.589  0.00  0.00    +0.029 C 
BRANCH  58  59
ATOM     59  CG  LYS A   5       9.404  -3.720  30.591  0.00  0.00    +0.000 C 
BRANCH  59  60
ATOM     60  CD  LYS A   5      10.732  -3.339  29.925  0.00  0.00    -0.024 C 
BRANCH  60  61
ATOM     61  CE  LYS A   5      11.290  -4.515  29.113  0.00  0.00    -0.086 C 
BRANCH  61  62
ATOM     62  NZ  LYS A   5      12.723  -4.270  28.715  0.00  0.00    +0.380 N 
ATOM     63  HZ1 LYS A   5      13.303  -4.151  29.570  0.00  0.00    -0.089 HD
ATOM     64  HZ2 LYS A   5      13.073  -5.082  28.167  0.00  0.00    -0.089 HD
ATOM     65  HZ3 LYS A   5      12.778  -3.409  28.134  0.00  0.00    -0.089 HD
ENDBRANCH  61  62
ENDBRANCH  60  61
ENDBRANCH  59  60
ENDBRANCH  58  59
ENDBRANCH   1  58
TORSDOF 28
REMARK  Name = ../refined-set-2016/3re4/3re4_pocket.pdb
REMARK  192 active torsions:
REMARK  status: ('A' for Active; 'I' for Inactive)
REMARK    1  A    between atoms: _1  and  _3
REMARK    2  A    between atoms: _3  and  _4
REMARK    3  A    between atoms: _3  and  _6
REMARK    4  A    between atoms: _9  and  _11
REMARK    5  A    between atoms: _11  and  _12
REMARK    6  A    between atoms: _11  and  _14
REMARK    7  A    between atoms: _14  and  _15
REMARK    8  A    between atoms: _18  and  _20
REMARK    9  A    between atoms: _20  and  _21
REMARK   10  A    between atoms: _20  and  _23
REMARK   11  A    between atoms: _23  and  _24
REMARK   12  A    between atoms: _26  and  _28
REMARK   13  A    between atoms: _28  and  _29
REMARK   14  A    between atoms: _28  and  _31
REMARK   15  A    between atoms: _31  and  _32
REMARK   16  A    between atoms: _35  and  _37
REMARK   17  A    between atoms: _37  and  _38
REMARK   18  A    between atoms: _40  and  _42
REMARK   19  A    between atoms: _42  and  _43
REMARK   20  A    between atoms: _46  and  _48
REMARK   21  A    between atoms: _48  and  _49
REMARK   22  A    between atoms: _48  and  _51
REMARK   23  A    between atoms: _51  and  _52
REMARK   24  A    between atoms: _57  and  _59
REMARK   25  A    between atoms: _59  and  _60
REMARK   26  A    between atoms: _59  and  _62
REMARK   27  A    between atoms: _65  and  _67
REMARK   28  A    between atoms: _67  and  _68
REMARK   29  A    between atoms: _67  and  _70
REMARK   30  A    between atoms: _70  and  _71
REMARK   31  A    between atoms: _77  and  _79
REMARK   32  A    between atoms: _79  and  _80
REMARK   33  A    between atoms: _79  and  _82
REMARK   34  A    between atoms: _82  and  _83
REMARK   35  A    between atoms: _88  and  _89
REMARK   36  A    between atoms: _91  and  _93
REMARK   37  A    between atoms: _93  and  _94
REMARK   38  A    between atoms: _97  and  _99
REMARK   39  A    between atoms: _99  and  _100
REMARK   40  A    between atoms: _103  and  _105
REMARK   41  A    between atoms: _105  and  _106
REMARK   42  A    between atoms: _105  and  _108
REMARK   43  A    between atoms: _108  and  _109
REMARK   44  A    between atoms: _109  and  _110
REMARK   45  A    between atoms: _112  and  _114
REMARK   46  A    between atoms: _114  and  _115
REMARK   47  A    between atoms: _118  and  _120
REMARK   48  A    between atoms: _120  and  _121
REMARK   49  A    between atoms: _120  and  _123
REMARK   50  A    between atoms: _126  and  _128
REMARK   51  A    between atoms: _128  and  _129
REMARK   52  A    between atoms: _128  and  _131
REMARK   53  A    between atoms: _131  and  _132
REMARK   54  A    between atoms: _132  and  _133
REMARK   55  A    between atoms: _133  and  _134
REMARK   56  A    between atoms: _134  and  _135
REMARK   57  A    between atoms: _139  and  _141
REMARK   58  A    between atoms: _141  and  _142
REMARK   59  A    between atoms: _141  and  _144
REMARK   60  A    between atoms: _144  and  _145
REMARK   61  A    between atoms: _148  and  _150
REMARK   62  A    between atoms: _150  and  _151
REMARK   63  A    between atoms: _150  and  _153
REMARK   64  A    between atoms: _153  and  _154
REMARK   65  A    between atoms: _159  and  _160
REMARK   66  A    between atoms: _162  and  _164
REMARK   67  A    between atoms: _164  and  _165
REMARK   68  A    between atoms: _164  and  _167
REMARK   69  A    between atoms: _167  and  _168
REMARK   70  A    between atoms: _168  and  _169
REMARK   71  A    between atoms: _172  and  _174
REMARK   72  A    between atoms: _174  and  _175
REMARK   73  A    between atoms: _174  and  _177
REMARK   74  A    between atoms: _177  and  _178
REMARK   75  A    between atoms: _181  and  _183
REMARK   76  A    between atoms: _183  and  _184
REMARK   77  A    between atoms: _183  and  _186
REMARK   78  A    between atoms: _190  and  _191
REMARK   79  A    between atoms: _196  and  _198
REMARK   80  A    between atoms: _198  and  _199
REMARK   81  A    between atoms: _198  and  _201
REMARK   82  A    between atoms: _201  and  _202
REMARK   83  A    between atoms: _202  and  _203
REMARK   84  A    between atoms: _208  and  _210
REMARK   85  A    between atoms: _210  and  _211
REMARK   86  A    between atoms: _210  and  _213
REMARK   87  A    between atoms: _213  and  _214
REMARK   88  A    between atoms: _217  and  _219
REMARK   89  A    between atoms: _219  and  _220
REMARK   90  A    between atoms: _219  and  _222
REMARK   91  A    between atoms: _222  and  _223
REMARK   92  A    between atoms: _226  and  _228
REMARK   93  A    between atoms: _228  and  _229
REMARK   94  A    between atoms: _228  and  _231
REMARK   95  A    between atoms: _231  and  _232
REMARK   96  A    between atoms: _232  and  _233
REMARK   97  A    between atoms: _235  and  _237
REMARK   98  A    between atoms: _237  and  _238
REMARK   99  A    between atoms: _237  and  _240
REMARK  100  A    between atoms: _240  and  _241
REMARK  101  A    between atoms: _241  and  _242
REMARK  102  A    between atoms: _245  and  _247
REMARK  103  A    between atoms: _247  and  _248
REMARK  104  A    between atoms: _247  and  _250
REMARK  105  A    between atoms: _250  and  _251
REMARK  106  A    between atoms: _257  and  _259
REMARK  107  A    between atoms: _259  and  _260
REMARK  108  A    between atoms: _259  and  _262
REMARK  109  A    between atoms: _262  and  _263
REMARK  110  A    between atoms: _266  and  _268
REMARK  111  A    between atoms: _268  and  _269
REMARK  112  A    between atoms: _271  and  _273
REMARK  113  A    between atoms: _273  and  _274
REMARK  114  A    between atoms: _273  and  _276
REMARK  115  A    between atoms: _276  and  _277
REMARK  116  A    between atoms: _277  and  _278
REMARK  117  A    between atoms: _281  and  _283
REMARK  118  A    between atoms: _283  and  _284
REMARK  119  A    between atoms: _283  and  _286
REMARK  120  A    between atoms: _286  and  _287
REMARK  121  A    between atoms: _287  and  _288
REMARK  122  A    between atoms: _291  and  _293
REMARK  123  A    between atoms: _293  and  _294
REMARK  124  A    between atoms: _293  and  _296
REMARK  125  A    between atoms: _296  and  _297
REMARK  126  A    between atoms: _301  and  _302
REMARK  127  A    between atoms: _307  and  _309
REMARK  128  A    between atoms: _309  and  _310
REMARK  129  A    between atoms: _314  and  _315
REMARK  130  A    between atoms: _320  and  _322
REMARK  131  A    between atoms: _322  and  _323
REMARK  132  A    between atoms: _322  and  _325
REMARK  133  A    between atoms: _325  and  _326
REMARK  134  A    between atoms: _329  and  _331
REMARK  135  A    between atoms: _331  and  _332
REMARK  136  A    between atoms: _331  and  _334
REMARK  137  A    between atoms: _334  and  _335
REMARK  138  A    between atoms: _338  and  _340
REMARK  139  A    between atoms: _340  and  _341
REMARK  140  A    between atoms: _340  and  _343
REMARK  141  A    between atoms: _346  and  _348
REMARK  142  A    between atoms: _348  and  _349
REMARK  143  A    between atoms: _348  and  _351
REMARK  144  A    between atoms: _351  and  _352
REMARK  145  A    between atoms: _352  and  _353
REMARK  146  A    between atoms: _356  and  _358
REMARK  147  A    between atoms: _358  and  _359
REMARK  148  A    between atoms: _358  and  _361
REMARK  149  A    between atoms: _361  and  _362
REMARK  150  A    between atoms: _362  and  _363
REMARK  151  A    between atoms: _366  and  _368
REMARK  152  A    between atoms: _368  and  _369
REMARK  153  A    between atoms: _368  and  _371
REMARK  154  A    between atoms: _371  and  _372
REMARK  155  A    between atoms: _377  and  _378
REMARK  156  A    between atoms: _380  and  _382
REMARK  157  A    between atoms: _382  and  _383
REMARK  158  A    between atoms: _382  and  _385
REMARK  159  A    between atoms: _385  and  _386
REMARK  160  A    between atoms: _391  and  _393
REMARK  161  A    between atoms: _393  and  _394
REMARK  162  A    between atoms: _393  and  _396
REMARK  163  A    between atoms: _396  and  _397
REMARK  164  A    between atoms: _400  and  _402
REMARK  165  A    between atoms: _402  and  _403
REMARK  166  A    between atoms: _402  and  _405
REMARK  167  A    between atoms: _405  and  _406
REMARK  168  A    between atoms: _406  and  _407
REMARK  169  A    between atoms: _409  and  _411
REMARK  170  A    between atoms: _411  and  _412
REMARK  171  A    between atoms: _411  and  _414
REMARK  172  A    between atoms: _414  and  _415
REMARK  173  A    between atoms: _420  and  _421
REMARK  174  A    between atoms: _423  and  _425
REMARK  175  A    between atoms: _425  and  _426
REMARK  176  A    between atoms: _425  and  _428
REMARK  177  A    between atoms: _428  and  _429
REMARK  178  A    between atoms: _435  and  _437
REMARK  179  A    between atoms: _437  and  _438
REMARK  180  A    between atoms: _437  and  _440
REMARK  181  A    between atoms: _440  and  _441
REMARK  182  A    between atoms: _444  and  _446
REMARK  183  A    between atoms: _446  and  _447
REMARK  184  A    between atoms: _446  and  _449
REMARK  185  A    between atoms: _449  and  _450
REMARK  186  A    between atoms: _453  and  _455
REMARK  187  A    between atoms: _455  and  _456
REMARK  188  A    between atoms: _455  and  _458
REMARK  189  A    between atoms: _458  and  _459
REMARK  190  A    between atoms: _459  and  _460
REMARK  191  A    between atoms: _462  and  _464
REMARK  192  A    between atoms: _464  and  _465
REMARK                            x       y       z     vdW  Elec       q    Type
REMARK                         _______ _______ _______ _____ _____    ______ ____
ROOT
ATOM      1  CA  GLU A   1      17.453  -5.216  33.799  0.00  0.00    +0.134 C 
ENDROOT
BRANCH   1   2
ATOM      2  N   GLU A   1      17.737  -6.511  34.395  0.00  0.00    -0.239 NA
ATOM      3  H   GLU A   1      17.049  -7.290  34.348  0.00  0.00    +0.142 HD
ENDBRANCH   1   2
BRANCH   1   4
ATOM      4  C   GLU A   1      17.487  -4.114  34.879  0.00  0.00    +0.224 C 
ATOM      5  O   GLU A   1      18.144  -3.087  34.696  0.00  0.00    -0.287 OA
ENDBRANCH   1   4
BRANCH   1   6
ATOM      6  CB  GLU A   1      16.146  -5.199  32.992  0.00  0.00    +0.037 C 
BRANCH   6   7
ATOM      7  CG  GLU A   1      15.904  -3.847  32.339  0.00  0.00    +0.116 C 
BRANCH   7   8
ATOM      8  CD  GLU A   1      14.886  -3.875  31.178  0.00  0.00    +0.365 C 
ATOM      9  OE2 GLU A   1      14.082  -4.826  31.081  0.00  0.00    -0.246 OA
ATOM     10  OE1 GLU A   1      14.898  -2.918  30.375  0.00  0.00    -0.246 OA
ENDBRANCH   7   8
ENDBRANCH   6   7
ENDBRANCH   1   6
TORSDOF 5
REMARK  Name = ../refined-set-2016/3re4/3re4_pocket.pdb
REMARK  192 active torsions:
REMARK  status: ('A' for Active; 'I' for Inactive)
REMARK    1  A    between atoms: _1  and  _3
REMARK    2  A    between atoms: _3  and  _4
REMARK    3  A    between atoms: _3  and  _6
REMARK    4  A    between atoms: _9  and  _11
REMARK    5  A    between atoms: _11  and  _12
REMARK    6  A    between atoms: _11  and  _14
REMARK    7  A    between atoms: _14  and  _15
REMARK    8  A    between atoms: _18  and  _20
REMARK    9  A    between atoms: _20  and  _21
REMARK   10  A    between atoms: _20  and  _23
REMARK   11  A    between atoms: _23  and  _24
REMARK   12  A    between atoms: _26  and  _28
REMARK   13  A    between atoms: _28  and  _29
REMARK   14  A    between atoms: _28  and  _31
REMARK   15  A    between atoms: _31  and  _32
REMARK   16  A    between atoms: _35  and  _37
REMARK   17  A    between atoms: _37  and  _38
REMARK   18  A    between atoms: _40  and  _42
REMARK   19  A    between atoms: _42  and  _43
REMARK   20  A    between atoms: _46  and  _48
REMARK   21  A    between atoms: _48  and  _49
REMARK   22  A    between atoms: _48  and  _51
REMARK   23  A    between atoms: _51  and  _52
REMARK   24  A    between atoms: _57  and  _59
REMARK   25  A    between atoms: _59  and  _60
REMARK   26  A    between atoms: _59  and  _62
REMARK   27  A    between atoms: _65  and  _67
REMARK   28  A    between atoms: _67  and  _68
REMARK   29  A    between atoms: _67  and  _70
REMARK   30  A    between atoms: _70  and  _71
REMARK   31  A    between atoms: _77  and  _79
REMARK   32  A    between atoms: _79  and  _80
REMARK   33  A    between atoms: _79  and  _82
REMARK   34  A    between atoms: _82  and  _83
REMARK   35  A    between atoms: _88  and  _89
REMARK   36  A    between atoms: _91  and  _93
REMARK   37  A    between atoms: _93  and  _94
REMARK   38  A    between atoms: _97  and  _99
REMARK   39  A    between atoms: _99  and  _100
REMARK   40  A    between atoms: _103  and  _105
REMARK   41  A    between atoms: _105  and  _106
REMARK   42  A    between atoms: _105  and  _108
REMARK   43  A    between atoms: _108  and  _109
REMARK   44  A    between atoms: _109  and  _110
REMARK   45  A    between atoms: _112  and  _114
REMARK   46  A    between atoms: _114  and  _115
REMARK   47  A    between atoms: _118  and  _120
REMARK   48  A    between atoms: _120  and  _121
REMARK   49  A    between atoms: _120  and  _123
REMARK   50  A    between atoms: _126  and  _128
REMARK   51  A    between atoms: _128  and  _129
REMARK   52  A    between atoms: _128  and  _131
REMARK   53  A    between atoms: _131  and  _132
REMARK   54  A    between atoms: _132  and  _133
REMARK   55  A    between atoms: _133  and  _134
REMARK   56  A    between atoms: _134  and  _135
REMARK   57  A    between atoms: _139  and  _141
REMARK   58  A    between atoms: _141  and  _142
REMARK   59  A    between atoms: _141  and  _144
REMARK   60  A    between atoms: _144  and  _145
REMARK   61  A    between atoms: _148  and  _150
REMARK   62  A    between atoms: _150  and  _151
REMARK   63  A    between atoms: _150  and  _153
REMARK   64  A    between atoms: _153  and  _154
REMARK   65  A    between atoms: _159  and  _160
REMARK   66  A    between atoms: _162  and  _164
REMARK   67  A    between atoms: _164  and  _165
REMARK   68  A    between atoms: _164  and  _167
REMARK   69  A    between atoms: _167  and  _168
REMARK   70  A    between atoms: _168  and  _169
REMARK   71  A    between atoms: _172  and  _174
REMARK   72  A    between atoms: _174  and  _175
REMARK   73  A    between atoms: _174  and  _177
REMARK   74  A    between atoms: _177  and  _178
REMARK   75  A    between atoms: _181  and  _183
REMARK   76  A    between atoms: _183  and  _184
REMARK   77  A    between atoms: _183  and  _186
REMARK   78  A    between atoms: _190  and  _191
REMARK   79  A    between atoms: _196  and  _198
REMARK   80  A    between atoms: _198  and  _199
REMARK   81  A    between atoms: _198  and  _201
REMARK   82  A    between atoms: _201  and  _202
REMARK   83  A    between atoms: _202  and  _203
REMARK   84  A    between atoms: _208  and  _210
REMARK   85  A    between atoms: _210  and  _211
REMARK   86  A    between atoms: _210  and  _213
REMARK   87  A    between atoms: _213  and  _214
REMARK   88  A    between atoms: _217  and  _219
REMARK   89  A    between atoms: _219  and  _220
REMARK   90  A    between atoms: _219  and  _222
REMARK   91  A    between atoms: _222  and  _223
REMARK   92  A    between atoms: _226  and  _228
REMARK   93  A    between atoms: _228  and  _229
REMARK   94  A    between atoms: _228  and  _231
REMARK   95  A    between atoms: _231  and  _232
REMARK   96  A    between atoms: _232  and  _233
REMARK   97  A    between atoms: _235  and  _237
REMARK   98  A    between atoms: _237  and  _238
REMARK   99  A    between atoms: _237  and  _240
REMARK  100  A    between atoms: _240  and  _241
REMARK  101  A    between atoms: _241  and  _242
REMARK  102  A    between atoms: _245  and  _247
REMARK  103  A    between atoms: _247  and  _248
REMARK  104  A    between atoms: _247  and  _250
REMARK  105  A    between atoms: _250  and  _251
REMARK  106  A    between atoms: _257  and  _259
REMARK  107  A    between atoms: _259  and  _260
REMARK  108  A    between atoms: _259  and  _262
REMARK  109  A    between atoms: _262  and  _263
REMARK  110  A    between atoms: _266  and  _268
REMARK  111  A    between atoms: _268  and  _269
REMARK  112  A    between atoms: _271  and  _273
REMARK  113  A    between atoms: _273  and  _274
REMARK  114  A    between atoms: _273  and  _276
REMARK  115  A    between atoms: _276  and  _277
REMARK  116  A    between atoms: _277  and  _278
REMARK  117  A    between atoms: _281  and  _283
REMARK  118  A    between atoms: _283  and  _284
REMARK  119  A    between atoms: _283  and  _286
REMARK  120  A    between atoms: _286  and  _287
REMARK  121  A    between atoms: _287  and  _288
REMARK  122  A    between atoms: _291  and  _293
REMARK  123  A    between atoms: _293  and  _294
REMARK  124  A    between atoms: _293  and  _296
REMARK  125  A    between atoms: _296  and  _297
REMARK  126  A    between atoms: _301  and  _302
REMARK  127  A    between atoms: _307  and  _309
REMARK  128  A    between atoms: _309  and  _310
REMARK  129  A    between atoms: _314  and  _315
REMARK  130  A    between atoms: _320  and  _322
REMARK  131  A    between atoms: _322  and  _323
REMARK  132  A    between atoms: _322  and  _325
REMARK  133  A    between atoms: _325  and  _326
REMARK  134  A    between atoms: _329  and  _331
REMARK  135  A    between atoms: _331  and  _332
REMARK  136  A    between atoms: _331  and  _334
REMARK  137  A    between atoms: _334  and  _335
REMARK  138  A    between atoms: _338  and  _340
REMARK  139  A    between atoms: _340  and  _341
REMARK  140  A    between atoms: _340  and  _343
REMARK  141  A    between atoms: _346  and  _348
REMARK  142  A    between atoms: _348  and  _349
REMARK  143  A    between atoms: _348  and  _351
REMARK  144  A    between atoms: _351  and  _352
REMARK  145  A    between atoms: _352  and  _353
REMARK  146  A    between atoms: _356  and  _358
REMARK  147  A    between atoms: _358  and  _359
REMARK  148  A    between atoms: _358  and  _361
REMARK  149  A    between atoms: _361  and  _362
REMARK  150  A    between atoms: _362  and  _363
REMARK  151  A    between atoms: _366  and  _368
REMARK  152  A    between atoms: _368  and  _369
REMARK  153  A    between atoms: _368  and  _371
REMARK  154  A    between atoms: _371  and  _372
REMARK  155  A    between atoms: _377  and  _378
REMARK  156  A    between atoms: _380  and  _382
REMARK  157  A    between atoms: _382  and  _383
REMARK  158  A    between atoms: _382  and  _385
REMARK  159  A    between atoms: _385  and  _386
REMARK  160  A    between atoms: _391  and  _393
REMARK  161  A    between atoms: _393  and  _394
REMARK  162  A    between atoms: _393  and  _396
REMARK  163  A    between atoms: _396  and  _397
REMARK  164  A    between atoms: _400  and  _402
REMARK  165  A    between atoms: _402  and  _403
REMARK  166  A    between atoms: _402  and  _405
REMARK  167  A    between atoms: _405  and  _406
REMARK  168  A    between atoms: _406  and  _407
REMARK  169  A    between atoms: _409  and  _411
REMARK  170  A    between atoms: _411  and  _412
REMARK  171  A    between atoms: _411  and  _414
REMARK  172  A    between atoms: _414  and  _415
REMARK  173  A    between atoms: _420  and  _421
REMARK  174  A    between atoms: _423  and  _425
REMARK  175  A    between atoms: _425  and  _426
REMARK  176  A    between atoms: _425  and  _428
REMARK  177  A    between atoms: _428  and  _429
REMARK  178  A    between atoms: _435  and  _437
REMARK  179  A    between atoms: _437  and  _438
REMARK  180  A    between atoms: _437  and  _440
REMARK  181  A    between atoms: _440  and  _441
REMARK  182  A    between atoms: _444  and  _446
REMARK  183  A    between atoms: _446  and  _447
REMARK  184  A    between atoms: _446  and  _449
REMARK  185  A    between atoms: _449  and  _450
REMARK  186  A    between atoms: _453  and  _455
REMARK  187  A    between atoms: _455  and  _456
REMARK  188  A    between atoms: _455  and  _458
REMARK  189  A    between atoms: _458  and  _459
REMARK  190  A    between atoms: _459  and  _460
REMARK  191  A    between atoms: _462  and  _464
REMARK  192  A    between atoms: _464  and  _465
REMARK                            x       y       z     vdW  Elec       q    Type
REMARK                         _______ _______ _______ _____ _____    ______ ____
ROOT
ATOM      1  CA  LEU A   1      19.396   0.477  34.780  0.00  0.00    +0.133 C 
ENDROOT
BRANCH   1   2
ATOM      2  N   LEU A   1      19.866  -0.897  34.749  0.00  0.00    -0.239 NA
ATOM      3  H   LEU A   1      19.199  -1.685  34.874  0.00  0.00    +0.142 HD
ENDBRANCH   1   2
BRANCH   1   4
ATOM      4  C   LEU A   1      20.104   1.294  35.883  0.00  0.00    +0.224 C 
ATOM      5  O   LEU A   1      20.559   2.428  35.630  0.00  0.00    -0.287 OA
ENDBRANCH   1   4
BRANCH   1   6
ATOM      6  CB  LEU A   1      17.866   0.536  34.922  0.00  0.00    +0.025 C 
BRANCH   6   7
ATOM      7  CG  LEU A   1      17.118   0.052  33.675  0.00  0.00    +0.002 C 
ATOM      8  CD2 LEU A   1      15.626  -0.155  33.916  0.00  0.00    +0.000 C 
ATOM      9  CD1 LEU A   1      17.322   1.025  32.501  0.00  0.00    +0.000 C 
ENDBRANCH   6   7
ENDBRANCH   1   6
TORSDOF 4
REMARK  Name = ../refined-set-2016/3re4/3re4_pocket.pdb
REMARK  192 active torsions:
REMARK  status: ('A' for Active; 'I' for Inactive)
REMARK    1  A    between atoms: _1  and  _3
REMARK    2  A    between atoms: _3  and  _4
REMARK    3  A    between atoms: _3  and  _6
REMARK    4  A    between atoms: _9  and  _11
REMARK    5  A    between atoms: _11  and  _12
REMARK    6  A    between atoms: _11  and  _14
REMARK    7  A    between atoms: _14  and  _15
REMARK    8  A    between atoms: _18  and  _20
REMARK    9  A    between atoms: _20  and  _21
REMARK   10  A    between atoms: _20  and  _23
REMARK   11  A    between atoms: _23  and  _24
REMARK   12  A    between atoms: _26  and  _28
REMARK   13  A    between atoms: _28  and  _29
REMARK   14  A    between atoms: _28  and  _31
REMARK   15  A    between atoms: _31  and  _32
REMARK   16  A    between atoms: _35  and  _37
REMARK   17  A    between atoms: _37  and  _38
REMARK   18  A    between atoms: _40  and  _42
REMARK   19  A    between atoms: _42  and  _43
REMARK   20  A    between atoms: _46  and  _48
REMARK   21  A    between atoms: _48  and  _49
REMARK   22  A    between atoms: _48  and  _51
REMARK   23  A    between atoms: _51  and  _52
REMARK   24  A    between atoms: _57  and  _59
REMARK   25  A    between atoms: _59  and  _60
REMARK   26  A    between atoms: _59  and  _62
REMARK   27  A    between atoms: _65  and  _67
REMARK   28  A    between atoms: _67  and  _68
REMARK   29  A    between atoms: _67  and  _70
REMARK   30  A    between atoms: _70  and  _71
REMARK   31  A    between atoms: _77  and  _79
REMARK   32  A    between atoms: _79  and  _80
REMARK   33  A    between atoms: _79  and  _82
REMARK   34  A    between atoms: _82  and  _83
REMARK   35  A    between atoms: _88  and  _89
REMARK   36  A    between atoms: _91  and  _93
REMARK   37  A    between atoms: _93  and  _94
REMARK   38  A    between atoms: _97  and  _99
REMARK   39  A    between atoms: _99  and  _100
REMARK   40  A    between atoms: _103  and  _105
REMARK   41  A    between atoms: _105  and  _106
REMARK   42  A    between atoms: _105  and  _108
REMARK   43  A    between atoms: _108  and  _109
REMARK   44  A    between atoms: _109  and  _110
REMARK   45  A    between atoms: _112  and  _114
REMARK   46  A    between atoms: _114  and  _115
REMARK   47  A    between atoms: _118  and  _120
REMARK   48  A    between atoms: _120  and  _121
REMARK   49  A    between atoms: _120  and  _123
REMARK   50  A    between atoms: _126  and  _128
REMARK   51  A    between atoms: _128  and  _129
REMARK   52  A    between atoms: _128  and  _131
REMARK   53  A    between atoms: _131  and  _132
REMARK   54  A    between atoms: _132  and  _133
REMARK   55  A    between atoms: _133  and  _134
REMARK   56  A    between atoms: _134  and  _135
REMARK   57  A    between atoms: _139  and  _141
REMARK   58  A    between atoms: _141  and  _142
REMARK   59  A    between atoms: _141  and  _144
REMARK   60  A    between atoms: _144  and  _145
REMARK   61  A    between atoms: _148  and  _150
REMARK   62  A    between atoms: _150  and  _151
REMARK   63  A    between atoms: _150  and  _153
REMARK   64  A    between atoms: _153  and  _154
REMARK   65  A    between atoms: _159  and  _160
REMARK   66  A    between atoms: _162  and  _164
REMARK   67  A    between atoms: _164  and  _165
REMARK   68  A    between atoms: _164  and  _167
REMARK   69  A    between atoms: _167  and  _168
REMARK   70  A    between atoms: _168  and  _169
REMARK   71  A    between atoms: _172  and  _174
REMARK   72  A    between atoms: _174  and  _175
REMARK   73  A    between atoms: _174  and  _177
REMARK   74  A    between atoms: _177  and  _178
REMARK   75  A    between atoms: _181  and  _183
REMARK   76  A    between atoms: _183  and  _184
REMARK   77  A    between atoms: _183  and  _186
REMARK   78  A    between atoms: _190  and  _191
REMARK   79  A    between atoms: _196  and  _198
REMARK   80  A    between atoms: _198  and  _199
REMARK   81  A    between atoms: _198  and  _201
REMARK   82  A    between atoms: _201  and  _202
REMARK   83  A    between atoms: _202  and  _203
REMARK   84  A    between atoms: _208  and  _210
REMARK   85  A    between atoms: _210  and  _211
REMARK   86  A    between atoms: _210  and  _213
REMARK   87  A    between atoms: _213  and  _214
REMARK   88  A    between atoms: _217  and  _219
REMARK   89  A    between atoms: _219  and  _220
REMARK   90  A    between atoms: _219  and  _222
REMARK   91  A    between atoms: _222  and  _223
REMARK   92  A    between atoms: _226  and  _228
REMARK   93  A    between atoms: _228  and  _229
REMARK   94  A    between atoms: _228  and  _231
REMARK   95  A    between atoms: _231  and  _232
REMARK   96  A    between atoms: _232  and  _233
REMARK   97  A    between atoms: _235  and  _237
REMARK   98  A    between atoms: _237  and  _238
REMARK   99  A    between atoms: _237  and  _240
REMARK  100  A    between atoms: _240  and  _241
REMARK  101  A    between atoms: _241  and  _242
REMARK  102  A    between atoms: _245  and  _247
REMARK  103  A    between atoms: _247  and  _248
REMARK  104  A    between atoms: _247  and  _250
REMARK  105  A    between atoms: _250  and  _251
REMARK  106  A    between atoms: _257  and  _259
REMARK  107  A    between atoms: _259  and  _260
REMARK  108  A    between atoms: _259  and  _262
REMARK  109  A    between atoms: _262  and  _263
REMARK  110  A    between atoms: _266  and  _268
REMARK  111  A    between atoms: _268  and  _269
REMARK  112  A    between atoms: _271  and  _273
REMARK  113  A    between atoms: _273  and  _274
REMARK  114  A    between atoms: _273  and  _276
REMARK  115  A    between atoms: _276  and  _277
REMARK  116  A    between atoms: _277  and  _278
REMARK  117  A    between atoms: _281  and  _283
REMARK  118  A    between atoms: _283  and  _284
REMARK  119  A    between atoms: _283  and  _286
REMARK  120  A    between atoms: _286  and  _287
REMARK  121  A    between atoms: _287  and  _288
REMARK  122  A    between atoms: _291  and  _293
REMARK  123  A    between atoms: _293  and  _294
REMARK  124  A    between atoms: _293  and  _296
REMARK  125  A    between atoms: _296  and  _297
REMARK  126  A    between atoms: _301  and  _302
REMARK  127  A    between atoms: _307  and  _309
REMARK  128  A    between atoms: _309  and  _310
REMARK  129  A    between atoms: _314  and  _315
REMARK  130  A    between atoms: _320  and  _322
REMARK  131  A    between atoms: _322  and  _323
REMARK  132  A    between atoms: _322  and  _325
REMARK  133  A    between atoms: _325  and  _326
REMARK  134  A    between atoms: _329  and  _331
REMARK  135  A    between atoms: _331  and  _332
REMARK  136  A    between atoms: _331  and  _334
REMARK  137  A    between atoms: _334  and  _335
REMARK  138  A    between atoms: _338  and  _340
REMARK  139  A    between atoms: _340  and  _341
REMARK  140  A    between atoms: _340  and  _343
REMARK  141  A    between atoms: _346  and  _348
REMARK  142  A    between atoms: _348  and  _349
REMARK  143  A    between atoms: _348  and  _351
REMARK  144  A    between atoms: _351  and  _352
REMARK  145  A    between atoms: _352  and  _353
REMARK  146  A    between atoms: _356  and  _358
REMARK  147  A    between atoms: _358  and  _359
REMARK  148  A    between atoms: _358  and  _361
REMARK  149  A    between atoms: _361  and  _362
REMARK  150  A    between atoms: _362  and  _363
REMARK  151  A    between atoms: _366  and  _368
REMARK  152  A    between atoms: _368  and  _369
REMARK  153  A    between atoms: _368  and  _371
REMARK  154  A    between atoms: _371  and  _372
REMARK  155  A    between atoms: _377  and  _378
REMARK  156  A    between atoms: _380  and  _382
REMARK  157  A    between atoms: _382  and  _383
REMARK  158  A    between atoms: _382  and  _385
REMARK  159  A    between atoms: _385  and  _386
REMARK  160  A    between atoms: _391  and  _393
REMARK  161  A    between atoms: _393  and  _394
REMARK  162  A    between atoms: _393  and  _396
REMARK  163  A    between atoms: _396  and  _397
REMARK  164  A    between atoms: _400  and  _402
REMARK  165  A    between atoms: _402  and  _403
REMARK  166  A    between atoms: _402  and  _405
REMARK  167  A    between atoms: _405  and  _406
REMARK  168  A    between atoms: _406  and  _407
REMARK  169  A    between atoms: _409  and  _411
REMARK  170  A    between atoms: _411  and  _412
REMARK  171  A    between atoms: _411  and  _414
REMARK  172  A    between atoms: _414  and  _415
REMARK  173  A    between atoms: _420  and  _421
REMARK  174  A    between atoms: _423  and  _425
REMARK  175  A    between atoms: _425  and  _426
REMARK  176  A    between atoms: _425  and  _428
REMARK  177  A    between atoms: _428  and  _429
REMARK  178  A    between atoms: _435  and  _437
REMARK  179  A    between atoms: _437  and  _438
REMARK  180  A    between atoms: _437  and  _440
REMARK  181  A    between atoms: _440  and  _441
REMARK  182  A    between atoms: _444  and  _446
REMARK  183  A    between atoms: _446  and  _447
REMARK  184  A    between atoms: _446  and  _449
REMARK  185  A    between atoms: _449  and  _450
REMARK  186  A    between atoms: _453  and  _455
REMARK  187  A    between atoms: _455  and  _456
REMARK  188  A    between atoms: _455  and  _458
REMARK  189  A    between atoms: _458  and  _459
REMARK  190  A    between atoms: _459  and  _460
REMARK  191  A    between atoms: _462  and  _464
REMARK  192  A    between atoms: _464  and  _465
REMARK                            x       y       z     vdW  Elec       q    Type
REMARK                         _______ _______ _______ _____ _____    ______ ____
ROOT
ATOM      1  C   PRO A   2      15.302   5.722  34.133  0.00  0.00    +0.241 C 
ATOM      2  N   GLN A   3      15.070   6.660  35.045  0.00  0.00    -0.298 N 
ATOM      3  H   GLN A   3      14.698   7.589  34.761  0.00  0.00    +0.150 HD
ATOM      4  O   PRO A   2      15.845   4.641  34.394  0.00  0.00    -0.273 OA
ENDROOT
BRANCH   1   8
ATOM      5  C   VAL A   1      17.140   6.217  31.842  0.00  0.00    +0.241 C 
ATOM      6  O   VAL A   1      17.313   7.200  32.549  0.00  0.00    -0.273 OA
ATOM      7  N   PRO A   2      15.963   5.561  31.792  0.00  0.00    -0.272 N 
ATOM      8  CA  PRO A   2      14.901   6.003  32.702  0.00  0.00    +0.152 C 
ATOM      9  CB  PRO A   2      13.705   5.108  32.335  0.00  0.00    +0.031 C 
ATOM     10  CG  PRO A   2      14.040   4.520  30.978  0.00  0.00    +0.024 C 
ATOM     11  CD  PRO A   2      15.531   4.421  30.954  0.00  0.00    +0.094 C 
BRANCH   5  12
ATOM     12  CA  VAL A   1      18.284   5.748  30.951  0.00  0.00    +0.145 C 
BRANCH  12  13
ATOM     13  CB  VAL A   1      18.849   4.392  31.445  0.00  0.00    +0.025 C 
ATOM     14  CG2 VAL A   1      19.196   4.453  32.988  0.00  0.00    +0.002 C 
ATOM     15  CG1 VAL A   1      20.095   3.993  30.639  0.00  0.00    +0.002 C 
ENDBRANCH  12  13
BRANCH  12  16
ATOM     16  N   VAL A   1      19.318   6.806  30.968  0.00  0.00    -0.238 NA
ATOM     17  H   VAL A   1      19.686   7.142  31.881  0.00  0.00    +0.142 HD
ENDBRANCH  12  16
ENDBRANCH   5  12
ENDBRANCH   1   8
BRANCH   2  18
ATOM     18  CA  GLN A   3      15.345   6.370  36.464  0.00  0.00    +0.137 C 
BRANCH  18  19
ATOM     19  C   GLN A   3      14.621   5.104  36.914  0.00  0.00    +0.227 C 
ATOM     20  O   GLN A   3      13.394   5.087  36.958  0.00  0.00    -0.286 OA
ENDBRANCH  18  19
BRANCH  18  21
ATOM     21  CB  GLN A   3      14.886   7.535  37.358  0.00  0.00    +0.037 C 
BRANCH  21  22
ATOM     22  CG  GLN A   3      15.038   7.265  38.896  0.00  0.00    +0.087 C 
BRANCH  22  23
ATOM     23  CD  GLN A   3      16.474   6.932  39.270  0.00  0.00    +0.219 C 
ATOM     24  NE2 GLN A   3      16.685   5.788  39.933  0.00  0.00    -0.329 N 
ATOM     25 HE21 GLN A   3      15.881   5.182  40.193  0.00  0.00    +0.145 HD
ATOM     26 HE22 GLN A   3      17.653   5.506  40.188  0.00  0.00    +0.145 HD
ATOM     27  OE1 GLN A   3      17.391   7.687  38.938  0.00  0.00    -0.275 OA
ENDBRANCH  22  23
ENDBRANCH  21  22
ENDBRANCH  18  21
ENDBRANCH   2  18
TORSDOF 9
REMARK  Name = ../refined-set-2016/3re4/3re4_pocket.pdb
REMARK  192 active torsions:
REMARK  status: ('A' for Active; 'I' for Inactive)
REMARK    1  A    between atoms: _1  and  _3
REMARK    2  A    between atoms: _3  and  _4
REMARK    3  A    between atoms: _3  and  _6
REMARK    4  A    between atoms: _9  and  _11
REMARK    5  A    between atoms: _11  and  _12
REMARK    6  A    between atoms: _11  and  _14
REMARK    7  A    between atoms: _14  and  _15
REMARK    8  A    between atoms: _18  and  _20
REMARK    9  A    between atoms: _20  and  _21
REMARK   10  A    between atoms: _20  and  _23
REMARK   11  A    between atoms: _23  and  _24
REMARK   12  A    between atoms: _26  and  _28
REMARK   13  A    between atoms: _28  and  _29
REMARK   14  A    between atoms: _28  and  _31
REMARK   15  A    between atoms: _31  and  _32
REMARK   16  A    between atoms: _35  and  _37
REMARK   17  A    between atoms: _37  and  _38
REMARK   18  A    between atoms: _40  and  _42
REMARK   19  A    between atoms: _42  and  _43
REMARK   20  A    between atoms: _46  and  _48
REMARK   21  A    between atoms: _48  and  _49
REMARK   22  A    between atoms: _48  and  _51
REMARK   23  A    between atoms: _51  and  _52
REMARK   24  A    between atoms: _57  and  _59
REMARK   25  A    between atoms: _59  and  _60
REMARK   26  A    between atoms: _59  and  _62
REMARK   27  A    between atoms: _65  and  _67
REMARK   28  A    between atoms: _67  and  _68
REMARK   29  A    between atoms: _67  and  _70
REMARK   30  A    between atoms: _70  and  _71
REMARK   31  A    between atoms: _77  and  _79
REMARK   32  A    between atoms: _79  and  _80
REMARK   33  A    between atoms: _79  and  _82
REMARK   34  A    between atoms: _82  and  _83
REMARK   35  A    between atoms: _88  and  _89
REMARK   36  A    between atoms: _91  and  _93
REMARK   37  A    between atoms: _93  and  _94
REMARK   38  A    between atoms: _97  and  _99
REMARK   39  A    between atoms: _99  and  _100
REMARK   40  A    between atoms: _103  and  _105
REMARK   41  A    between atoms: _105  and  _106
REMARK   42  A    between atoms: _105  and  _108
REMARK   43  A    between atoms: _108  and  _109
REMARK   44  A    between atoms: _109  and  _110
REMARK   45  A    between atoms: _112  and  _114
REMARK   46  A    between atoms: _114  and  _115
REMARK   47  A    between atoms: _118  and  _120
REMARK   48  A    between atoms: _120  and  _121
REMARK   49  A    between atoms: _120  and  _123
REMARK   50  A    between atoms: _126  and  _128
REMARK   51  A    between atoms: _128  and  _129
REMARK   52  A    between atoms: _128  and  _131
REMARK   53  A    between atoms: _131  and  _132
REMARK   54  A    between atoms: _132  and  _133
REMARK   55  A    between atoms: _133  and  _134
REMARK   56  A    between atoms: _134  and  _135
REMARK   57  A    between atoms: _139  and  _141
REMARK   58  A    between atoms: _141  and  _142
REMARK   59  A    between atoms: _141  and  _144
REMARK   60  A    between atoms: _144  and  _145
REMARK   61  A    between atoms: _148  and  _150
REMARK   62  A    between atoms: _150  and  _151
REMARK   63  A    between atoms: _150  and  _153
REMARK   64  A    between atoms: _153  and  _154
REMARK   65  A    between atoms: _159  and  _160
REMARK   66  A    between atoms: _162  and  _164
REMARK   67  A    between atoms: _164  and  _165
REMARK   68  A    between atoms: _164  and  _167
REMARK   69  A    between atoms: _167  and  _168
REMARK   70  A    between atoms: _168  and  _169
REMARK   71  A    between atoms: _172  and  _174
REMARK   72  A    between atoms: _174  and  _175
REMARK   73  A    between atoms: _174  and  _177
REMARK   74  A    between atoms: _177  and  _178
REMARK   75  A    between atoms: _181  and  _183
REMARK   76  A    between atoms: _183  and  _184
REMARK   77  A    between atoms: _183  and  _186
REMARK   78  A    between atoms: _190  and  _191
REMARK   79  A    between atoms: _196  and  _198
REMARK   80  A    between atoms: _198  and  _199
REMARK   81  A    between atoms: _198  and  _201
REMARK   82  A    between atoms: _201  and  _202
REMARK   83  A    between atoms: _202  and  _203
REMARK   84  A    between atoms: _208  and  _210
REMARK   85  A    between atoms: _210  and  _211
REMARK   86  A    between atoms: _210  and  _213
REMARK   87  A    between atoms: _213  and  _214
REMARK   88  A    between atoms: _217  and  _219
REMARK   89  A    between atoms: _219  and  _220
REMARK   90  A    between atoms: _219  and  _222
REMARK   91  A    between atoms: _222  and  _223
REMARK   92  A    between atoms: _226  and  _228
REMARK   93  A    between atoms: _228  and  _229
REMARK   94  A    between atoms: _228  and  _231
REMARK   95  A    between atoms: _231  and  _232
REMARK   96  A    between atoms: _232  and  _233
REMARK   97  A    between atoms: _235  and  _237
REMARK   98  A    between atoms: _237  and  _238
REMARK   99  A    between atoms: _237  and  _240
REMARK  100  A    between atoms: _240  and  _241
REMARK  101  A    between atoms: _241  and  _242
REMARK  102  A    between atoms: _245  and  _247
REMARK  103  A    between atoms: _247  and  _248
REMARK  104  A    between atoms: _247  and  _250
REMARK  105  A    between atoms: _250  and  _251
REMARK  106  A    between atoms: _257  and  _259
REMARK  107  A    between atoms: _259  and  _260
REMARK  108  A    between atoms: _259  and  _262
REMARK  109  A    between atoms: _262  and  _263
REMARK  110  A    between atoms: _266  and  _268
REMARK  111  A    between atoms: _268  and  _269
REMARK  112  A    between atoms: _271  and  _273
REMARK  113  A    between atoms: _273  and  _274
REMARK  114  A    between atoms: _273  and  _276
REMARK  115  A    between atoms: _276  and  _277
REMARK  116  A    between atoms: _277  and  _278
REMARK  117  A    between atoms: _281  and  _283
REMARK  118  A    between atoms: _283  and  _284
REMARK  119  A    between atoms: _283  and  _286
REMARK  120  A    between atoms: _286  and  _287
REMARK  121  A    between atoms: _287  and  _288
REMARK  122  A    between atoms: _291  and  _293
REMARK  123  A    between atoms: _293  and  _294
REMARK  124  A    between atoms: _293  and  _296
REMARK  125  A    between atoms: _296  and  _297
REMARK  126  A    between atoms: _301  and  _302
REMARK  127  A    between atoms: _307  and  _309
REMARK  128  A    between atoms: _309  and  _310
REMARK  129  A    between atoms: _314  and  _315
REMARK  130  A    between atoms: _320  and  _322
REMARK  131  A    between atoms: _322  and  _323
REMARK  132  A    between atoms: _322  and  _325
REMARK  133  A    between atoms: _325  and  _326
REMARK  134  A    between atoms: _329  and  _331
REMARK  135  A    between atoms: _331  and  _332
REMARK  136  A    between atoms: _331  and  _334
REMARK  137  A    between atoms: _334  and  _335
REMARK  138  A    between atoms: _338  and  _340
REMARK  139  A    between atoms: _340  and  _341
REMARK  140  A    between atoms: _340  and  _343
REMARK  141  A    between atoms: _346  and  _348
REMARK  142  A    between atoms: _348  and  _349
REMARK  143  A    between atoms: _348  and  _351
REMARK  144  A    between atoms: _351  and  _352
REMARK  145  A    between atoms: _352  and  _353
REMARK  146  A    between atoms: _356  and  _358
REMARK  147  A    between atoms: _358  and  _359
REMARK  148  A    between atoms: _358  and  _361
REMARK  149  A    between atoms: _361  and  _362
REMARK  150  A    between atoms: _362  and  _363
REMARK  151  A    between atoms: _366  and  _368
REMARK  152  A    between atoms: _368  and  _369
REMARK  153  A    between atoms: _368  and  _371
REMARK  154  A    between atoms: _371  and  _372
REMARK  155  A    between atoms: _377  and  _378
REMARK  156  A    between atoms: _380  and  _382
REMARK  157  A    between atoms: _382  and  _383
REMARK  158  A    between atoms: _382  and  _385
REMARK  159  A    between atoms: _385  and  _386
REMARK  160  A    between atoms: _391  and  _393
REMARK  161  A    between atoms: _393  and  _394
REMARK  162  A    between atoms: _393  and  _396
REMARK  163  A    between atoms: _396  and  _397
REMARK  164  A    between atoms: _400  and  _402
REMARK  165  A    between atoms: _402  and  _403
REMARK  166  A    between atoms: _402  and  _405
REMARK  167  A    between atoms: _405  and  _406
REMARK  168  A    between atoms: _406  and  _407
REMARK  169  A    between atoms: _409  and  _411
REMARK  170  A    between atoms: _411  and  _412
REMARK  171  A    between atoms: _411  and  _414
REMARK  172  A    between atoms: _414  and  _415
REMARK  173  A    between atoms: _420  and  _421
REMARK  174  A    between atoms: _423  and  _425
REMARK  175  A    between atoms: _425  and  _426
REMARK  176  A    between atoms: _425  and  _428
REMARK  177  A    between atoms: _428  and  _429
REMARK  178  A    between atoms: _435  and  _437
REMARK  179  A    between atoms: _437  and  _438
REMARK  180  A    between atoms: _437  and  _440
REMARK  181  A    between atoms: _440  and  _441
REMARK  182  A    between atoms: _444  and  _446
REMARK  183  A    between atoms: _446  and  _447
REMARK  184  A    between atoms: _446  and  _449
REMARK  185  A    between atoms: _449  and  _450
REMARK  186  A    between atoms: _453  and  _455
REMARK  187  A    between atoms: _455  and  _456
REMARK  188  A    between atoms: _455  and  _458
REMARK  189  A    between atoms: _458  and  _459
REMARK  190  A    between atoms: _459  and  _460
REMARK  191  A    between atoms: _462  and  _464
REMARK  192  A    between atoms: _464  and  _465
REMARK                            x       y       z     vdW  Elec       q    Type
REMARK                         _______ _______ _______ _____ _____    ______ ____
ROOT
ATOM      1  C   GLU A   4       9.928   6.690  33.790  0.00  0.00    +0.241 C 
ATOM      2  N   PHE A   5       8.807   7.412  33.661  0.00  0.00    -0.297 N 
ATOM      3  H   PHE A   5       8.432   7.921  34.487  0.00  0.00    +0.150 HD
ATOM      4  O   GLU A   4      10.387   6.011  32.877  0.00  0.00    -0.273 OA
ENDROOT
BRANCH   2   5
ATOM      5  CA  PHE A   5       8.092   7.501  32.371  0.00  0.00    +0.153 C 
BRANCH   5   6
ATOM      6  C   PHE A   5       8.749   8.522  31.430  0.00  0.00    +0.241 C 
ATOM      7  O   PHE A   5       8.828   9.707  31.761  0.00  0.00    -0.273 OA
ATOM      8  N   ILE A   6       9.204   8.069  30.262  0.00  0.00    -0.297 N 
ATOM      9  H   ILE A   6       9.107   7.061  30.026  0.00  0.00    +0.150 HD
BRANCH   8  10
ATOM     10  CA  ILE A   6       9.831   8.969  29.320  0.00  0.00    +0.149 C 
BRANCH  10  11
ATOM     11  C   ILE A   6       8.780   9.480  28.337  0.00  0.00    +0.241 C 
ATOM     12  N   GLY A   7       8.383  10.736  28.517  0.00  0.00    -0.295 N 
ATOM     13  H   GLY A   7       8.863  11.319  29.232  0.00  0.00    +0.150 HD
ATOM     14  O   ILE A   6       8.345   8.762  27.429  0.00  0.00    -0.273 OA
BRANCH  12  15
ATOM     15  CA  GLY A   7       7.292  11.323  27.741  0.00  0.00    +0.176 C 
BRANCH  15  16
ATOM     16  C   GLY A   7       6.547  12.318  28.606  0.00  0.00    +0.243 C 
ATOM     17  O   GLY A   7       6.997  12.633  29.719  0.00  0.00    -0.273 OA
ATOM     18  N   GLU A   8       5.406  12.809  28.135  0.00  0.00    -0.298 N 
ATOM     19  H   GLU A   8       5.084  12.565  27.177  0.00  0.00    +0.150 HD
BRANCH  18  20
ATOM     20  CA  GLU A   8       4.607  13.697  28.980  0.00  0.00    +0.137 C 
BRANCH  20  21
ATOM     21  C   GLU A   8       3.118  13.495  28.769  0.00  0.00    +0.227 C 
ATOM     22  O   GLU A   8       2.685  13.087  27.701  0.00  0.00    -0.286 OA
ENDBRANCH  20  21
BRANCH  20  23
ATOM     23  CB  GLU A   8       5.002  15.160  28.766  0.00  0.00    +0.039 C 
BRANCH  23  24
ATOM     24  CG  GLU A   8       4.865  15.642  27.322  0.00  0.00    +0.116 C 
BRANCH  24  25
ATOM     25  CD  GLU A   8       5.789  16.827  27.011  0.00  0.00    +0.365 C 
ATOM     26  OE2 GLU A   8       6.124  17.578  27.958  0.00  0.00    -0.246 OA
ATOM     27  OE1 GLU A   8       6.175  16.991  25.826  0.00  0.00    -0.246 OA
ENDBRANCH  24  25
ENDBRANCH  23  24
ENDBRANCH  20  23
ENDBRANCH  18  20
ENDBRANCH  15  16
ENDBRANCH  12  15
ENDBRANCH  10  11
BRANCH  10  28
ATOM     28  CB  ILE A   6      10.987   8.284  28.545  0.00  0.00    +0.027 C 
ATOM     29  CG2 ILE A   6      11.683   9.289  27.684  0.00  0.00    +0.002 C 
BRANCH  28  30
ATOM     30  CG1 ILE A   6      11.976   7.670  29.526  0.00  0.00    +0.002 C 
ATOM     31  CD1 ILE A   6      12.560   8.671  30.491  0.00  0.00    +0.000 C 
ENDBRANCH  28  30
ENDBRANCH  10  28
ENDBRANCH   8  10
ENDBRANCH   5   6
BRANCH   5  32
ATOM     32  CB  PHE A   5       6.599   7.880  32.559  0.00  0.00    +0.055 C 
BRANCH  32  33
ATOM     33  CG  PHE A   5       5.788   7.856  31.251  0.00  0.00    -0.020 A 
ATOM     34  CD2 PHE A   5       5.397   6.656  30.678  0.00  0.00    -0.004 A 
ATOM     35  CE2 PHE A   5       4.666   6.643  29.474  0.00  0.00    -0.000 A 
ATOM     36  CZ  PHE A   5       4.318   7.834  28.863  0.00  0.00    -0.000 A 
ATOM     37  CE1 PHE A   5       4.696   9.027  29.433  0.00  0.00    -0.000 A 
ATOM     38  CD1 PHE A   5       5.422   9.036  30.619  0.00  0.00    -0.004 A 
ENDBRANCH  32  33
ENDBRANCH   5  32
ENDBRANCH   2   5
BRANCH   1  39
ATOM     39  CA  GLU A   4      10.657   6.724  35.135  0.00  0.00    +0.149 C 
BRANCH  39  42
ATOM     40  C   MET A   3      10.136   4.444  35.761  0.00  0.00    +0.241 C 
ATOM     41  O   MET A   3       8.923   4.616  35.580  0.00  0.00    -0.273 OA
ATOM     42  N   GLU A   4      11.039   5.394  35.544  0.00  0.00    -0.297 N 
ATOM     43  H   GLU A   4      12.047   5.173  35.672  0.00  0.00    +0.150 HD
BRANCH  40  44
ATOM     44  CA  MET A   3      10.689   3.097  36.221  0.00  0.00    +0.149 C 
BRANCH  44  47
ATOM     45  C   LEU A   2       9.818   1.240  37.492  0.00  0.00    +0.241 C 
ATOM     46  O   LEU A   2      10.866   1.170  38.152  0.00  0.00    -0.273 OA
ATOM     47  N   MET A   3       9.633   2.136  36.524  0.00  0.00    -0.297 N 
ATOM     48  H   MET A   3       8.742   2.151  35.988  0.00  0.00    +0.150 HD
BRANCH  45  49
ATOM     49  CA  LEU A   2       8.695   0.266  37.762  0.00  0.00    +0.149 C 
BRANCH  49  51
ATOM     50  C   LEU A   1       9.008  -1.924  36.753  0.00  0.00    +0.238 C 
ATOM     51  N   LEU A   2       9.277  -1.079  37.736  0.00  0.00    -0.297 N 
ATOM     52  H   LEU A   2       9.913  -1.375  38.504  0.00  0.00    +0.150 HD
ATOM     53  O   LEU A   1       8.212  -1.669  35.866  0.00  0.00    -0.274 OA
BRANCH  50  54
ATOM     54  CA  LEU A   1       9.735  -3.243  36.741  0.00  0.00    +0.145 C 
BRANCH  54  55
ATOM     55  N   LEU A   1       8.748  -4.326  36.614  0.00  0.00    -0.238 NA
ATOM     56  H   LEU A   1       8.192  -4.398  35.738  0.00  0.00    +0.142 HD
ENDBRANCH  54  55
BRANCH  54  57
ATOM     57  CB  LEU A   1      10.631  -3.231  35.492  0.00  0.00    +0.026 C 
BRANCH  57  58
ATOM     58  CG  LEU A   1      11.882  -4.086  35.438  0.00  0.00    +0.002 C 
ATOM     59  CD2 LEU A   1      12.808  -3.681  36.526  0.00  0.00    +0.000 C 
ATOM     60  CD1 LEU A   1      12.561  -3.918  34.056  0.00  0.00    +0.000 C 
ENDBRANCH  57  58
ENDBRANCH  54  57
ENDBRANCH  50  54
ENDBRANCH  49  51
BRANCH  49  61
ATOM     61  CB  LEU A   2       8.075   0.587  39.147  0.00  0.00    +0.029 C 
BRANCH  61  62
ATOM     62  CG  LEU A   2       6.958  -0.351  39.632  0.00  0.00    +0.002 C 
ATOM     63  CD2 LEU A   2       6.335   0.112  40.937  0.00  0.00    +0.000 C 
ATOM     64  CD1 LEU A   2       5.879  -0.457  38.551  0.00  0.00    +0.000 C 
ENDBRANCH  61  62
ENDBRANCH  49  61
ENDBRANCH  45  49
ENDBRANCH  44  47
BRANCH  44  65
ATOM     65  CB  MET A   3      11.620   2.534  35.161  0.00  0.00    +0.041 C 
BRANCH  65  66
ATOM     66  CG  MET A   3      10.991   2.568  33.729  0.00  0.00    +0.060 C 
BRANCH  66  67
ATOM     67  SD  MET A   3      12.093   1.825  32.504  0.00  0.00    -0.139 S 
ATOM     68  CE  MET A   3      11.718   0.087  32.799  0.00  0.00    +0.069 C 
ENDBRANCH  66  67
ENDBRANCH  65  66
ENDBRANCH  44  65
ENDBRANCH  40  44
ENDBRANCH  39  42
BRANCH  39  69
ATOM     69  CB  GLU A   4      11.920   7.548  34.963  0.00  0.00    +0.041 C 
BRANCH  69  70
ATOM     70  CG  GLU A   4      11.675   8.967  34.477  0.00  0.00    +0.116 C 
BRANCH  70  71
ATOM     71  CD  GLU A   4      12.978   9.718  34.278  0.00  0.00    +0.365 C 
ATOM     72  OE2 GLU A   4      14.051   9.072  34.365  0.00  0.00    -0.246 OA
ATOM     73  OE1 GLU A   4      12.928  10.951  34.039  0.00  0.00    -0.246 OA
ENDBRANCH  70  71
ENDBRANCH  69  70
ENDBRANCH  39  69
ENDBRANCH   1  39
TORSDOF 33
REMARK  Name = ../refined-set-2016/3re4/3re4_pocket.pdb
REMARK  192 active torsions:
REMARK  status: ('A' for Active; 'I' for Inactive)
REMARK    1  A    between atoms: _1  and  _3
REMARK    2  A    between atoms: _3  and  _4
REMARK    3  A    between atoms: _3  and  _6
REMARK    4  A    between atoms: _9  and  _11
REMARK    5  A    between atoms: _11  and  _12
REMARK    6  A    between atoms: _11  and  _14
REMARK    7  A    between atoms: _14  and  _15
REMARK    8  A    between atoms: _18  and  _20
REMARK    9  A    between atoms: _20  and  _21
REMARK   10  A    between atoms: _20  and  _23
REMARK   11  A    between atoms: _23  and  _24
REMARK   12  A    between atoms: _26  and  _28
REMARK   13  A    between atoms: _28  and  _29
REMARK   14  A    between atoms: _28  and  _31
REMARK   15  A    between atoms: _31  and  _32
REMARK   16  A    between atoms: _35  and  _37
REMARK   17  A    between atoms: _37  and  _38
REMARK   18  A    between atoms: _40  and  _42
REMARK   19  A    between atoms: _42  and  _43
REMARK   20  A    between atoms: _46  and  _48
REMARK   21  A    between atoms: _48  and  _49
REMARK   22  A    between atoms: _48  and  _51
REMARK   23  A    between atoms: _51  and  _52
REMARK   24  A    between atoms: _57  and  _59
REMARK   25  A    between atoms: _59  and  _60
REMARK   26  A    between atoms: _59  and  _62
REMARK   27  A    between atoms: _65  and  _67
REMARK   28  A    between atoms: _67  and  _68
REMARK   29  A    between atoms: _67  and  _70
REMARK   30  A    between atoms: _70  and  _71
REMARK   31  A    between atoms: _77  and  _79
REMARK   32  A    between atoms: _79  and  _80
REMARK   33  A    between atoms: _79  and  _82
REMARK   34  A    between atoms: _82  and  _83
REMARK   35  A    between atoms: _88  and  _89
REMARK   36  A    between atoms: _91  and  _93
REMARK   37  A    between atoms: _93  and  _94
REMARK   38  A    between atoms: _97  and  _99
REMARK   39  A    between atoms: _99  and  _100
REMARK   40  A    between atoms: _103  and  _105
REMARK   41  A    between atoms: _105  and  _106
REMARK   42  A    between atoms: _105  and  _108
REMARK   43  A    between atoms: _108  and  _109
REMARK   44  A    between atoms: _109  and  _110
REMARK   45  A    between atoms: _112  and  _114
REMARK   46  A    between atoms: _114  and  _115
REMARK   47  A    between atoms: _118  and  _120
REMARK   48  A    between atoms: _120  and  _121
REMARK   49  A    between atoms: _120  and  _123
REMARK   50  A    between atoms: _126  and  _128
REMARK   51  A    between atoms: _128  and  _129
REMARK   52  A    between atoms: _128  and  _131
REMARK   53  A    between atoms: _131  and  _132
REMARK   54  A    between atoms: _132  and  _133
REMARK   55  A    between atoms: _133  and  _134
REMARK   56  A    between atoms: _134  and  _135
REMARK   57  A    between atoms: _139  and  _141
REMARK   58  A    between atoms: _141  and  _142
REMARK   59  A    between atoms: _141  and  _144
REMARK   60  A    between atoms: _144  and  _145
REMARK   61  A    between atoms: _148  and  _150
REMARK   62  A    between atoms: _150  and  _151
REMARK   63  A    between atoms: _150  and  _153
REMARK   64  A    between atoms: _153  and  _154
REMARK   65  A    between atoms: _159  and  _160
REMARK   66  A    between atoms: _162  and  _164
REMARK   67  A    between atoms: _164  and  _165
REMARK   68  A    between atoms: _164  and  _167
REMARK   69  A    between atoms: _167  and  _168
REMARK   70  A    between atoms: _168  and  _169
REMARK   71  A    between atoms: _172  and  _174
REMARK   72  A    between atoms: _174  and  _175
REMARK   73  A    between atoms: _174  and  _177
REMARK   74  A    between atoms: _177  and  _178
REMARK   75  A    between atoms: _181  and  _183
REMARK   76  A    between atoms: _183  and  _184
REMARK   77  A    between atoms: _183  and  _186
REMARK   78  A    between atoms: _190  and  _191
REMARK   79  A    between atoms: _196  and  _198
REMARK   80  A    between atoms: _198  and  _199
REMARK   81  A    between atoms: _198  and  _201
REMARK   82  A    between atoms: _201  and  _202
REMARK   83  A    between atoms: _202  and  _203
REMARK   84  A    between atoms: _208  and  _210
REMARK   85  A    between atoms: _210  and  _211
REMARK   86  A    between atoms: _210  and  _213
REMARK   87  A    between atoms: _213  and  _214
REMARK   88  A    between atoms: _217  and  _219
REMARK   89  A    between atoms: _219  and  _220
REMARK   90  A    between atoms: _219  and  _222
REMARK   91  A    between atoms: _222  and  _223
REMARK   92  A    between atoms: _226  and  _228
REMARK   93  A    between atoms: _228  and  _229
REMARK   94  A    between atoms: _228  and  _231
REMARK   95  A    between atoms: _231  and  _232
REMARK   96  A    between atoms: _232  and  _233
REMARK   97  A    between atoms: _235  and  _237
REMARK   98  A    between atoms: _237  and  _238
REMARK   99  A    between atoms: _237  and  _240
REMARK  100  A    between atoms: _240  and  _241
REMARK  101  A    between atoms: _241  and  _242
REMARK  102  A    between atoms: _245  and  _247
REMARK  103  A    between atoms: _247  and  _248
REMARK  104  A    between atoms: _247  and  _250
REMARK  105  A    between atoms: _250  and  _251
REMARK  106  A    between atoms: _257  and  _259
REMARK  107  A    between atoms: _259  and  _260
REMARK  108  A    between atoms: _259  and  _262
REMARK  109  A    between atoms: _262  and  _263
REMARK  110  A    between atoms: _266  and  _268
REMARK  111  A    between atoms: _268  and  _269
REMARK  112  A    between atoms: _271  and  _273
REMARK  113  A    between atoms: _273  and  _274
REMARK  114  A    between atoms: _273  and  _276
REMARK  115  A    between atoms: _276  and  _277
REMARK  116  A    between atoms: _277  and  _278
REMARK  117  A    between atoms: _281  and  _283
REMARK  118  A    between atoms: _283  and  _284
REMARK  119  A    between atoms: _283  and  _286
REMARK  120  A    between atoms: _286  and  _287
REMARK  121  A    between atoms: _287  and  _288
REMARK  122  A    between atoms: _291  and  _293
REMARK  123  A    between atoms: _293  and  _294
REMARK  124  A    between atoms: _293  and  _296
REMARK  125  A    between atoms: _296  and  _297
REMARK  126  A    between atoms: _301  and  _302
REMARK  127  A    between atoms: _307  and  _309
REMARK  128  A    between atoms: _309  and  _310
REMARK  129  A    between atoms: _314  and  _315
REMARK  130  A    between atoms: _320  and  _322
REMARK  131  A    between atoms: _322  and  _323
REMARK  132  A    between atoms: _322  and  _325
REMARK  133  A    between atoms: _325  and  _326
REMARK  134  A    between atoms: _329  and  _331
REMARK  135  A    between atoms: _331  and  _332
REMARK  136  A    between atoms: _331  and  _334
REMARK  137  A    between atoms: _334  and  _335
REMARK  138  A    between atoms: _338  and  _340
REMARK  139  A    between atoms: _340  and  _341
REMARK  140  A    between atoms: _340  and  _343
REMARK  141  A    between atoms: _346  and  _348
REMARK  142  A    between atoms: _348  and  _349
REMARK  143  A    between atoms: _348  and  _351
REMARK  144  A    between atoms: _351  and  _352
REMARK  145  A    between atoms: _352  and  _353
REMARK  146  A    between atoms: _356  and  _358
REMARK  147  A    between atoms: _358  and  _359
REMARK  148  A    between atoms: _358  and  _361
REMARK  149  A    between atoms: _361  and  _362
REMARK  150  A    between atoms: _362  and  _363
REMARK  151  A    between atoms: _366  and  _368
REMARK  152  A    between atoms: _368  and  _369
REMARK  153  A    between atoms: _368  and  _371
REMARK  154  A    between atoms: _371  and  _372
REMARK  155  A    between atoms: _377  and  _378
REMARK  156  A    between atoms: _380  and  _382
REMARK  157  A    between atoms: _382  and  _383
REMARK  158  A    between atoms: _382  and  _385
REMARK  159  A    between atoms: _385  and  _386
REMARK  160  A    between atoms: _391  and  _393
REMARK  161  A    between atoms: _393  and  _394
REMARK  162  A    between atoms: _393  and  _396
REMARK  163  A    between atoms: _396  and  _397
REMARK  164  A    between atoms: _400  and  _402
REMARK  165  A    between atoms: _402  and  _403
REMARK  166  A    between atoms: _402  and  _405
REMARK  167  A    between atoms: _405  and  _406
REMARK  168  A    between atoms: _406  and  _407
REMARK  169  A    between atoms: _409  and  _411
REMARK  170  A    between atoms: _411  and  _412
REMARK  171  A    between atoms: _411  and  _414
REMARK  172  A    between atoms: _414  and  _415
REMARK  173  A    between atoms: _420  and  _421
REMARK  174  A    between atoms: _423  and  _425
REMARK  175  A    between atoms: _425  and  _426
REMARK  176  A    between atoms: _425  and  _428
REMARK  177  A    between atoms: _428  and  _429
REMARK  178  A    between atoms: _435  and  _437
REMARK  179  A    between atoms: _437  and  _438
REMARK  180  A    between atoms: _437  and  _440
REMARK  181  A    between atoms: _440  and  _441
REMARK  182  A    between atoms: _444  and  _446
REMARK  183  A    between atoms: _446  and  _447
REMARK  184  A    between atoms: _446  and  _449
REMARK  185  A    between atoms: _449  and  _450
REMARK  186  A    between atoms: _453  and  _455
REMARK  187  A    between atoms: _455  and  _456
REMARK  188  A    between atoms: _455  and  _458
REMARK  189  A    between atoms: _458  and  _459
REMARK  190  A    between atoms: _459  and  _460
REMARK  191  A    between atoms: _462  and  _464
REMARK  192  A    between atoms: _464  and  _465
REMARK                            x       y       z     vdW  Elec       q    Type
REMARK                         _______ _______ _______ _____ _____    ______ ____
ROOT
ATOM      1  C   PRO A   5      10.441   8.034  20.345  0.00  0.00    +0.241 C 
ATOM      2  O   PRO A   5      11.421   8.642  20.787  0.00  0.00    -0.273 OA
ATOM      3  N   THR A   6      10.504   6.786  19.902  0.00  0.00    -0.295 N 
ATOM      4  H   THR A   6       9.624   6.245  19.782  0.00  0.00    +0.150 HD
ENDROOT
BRANCH   1  11
ATOM      5  C   ALA A   4       8.650   9.028  22.670  0.00  0.00    +0.244 C 
ATOM      6  O   ALA A   4       8.626   7.822  22.858  0.00  0.00    -0.273 OA
ATOM      7  N   PRO A   5       8.802   9.562  21.458  0.00  0.00    -0.272 N 
ATOM      8  CD  PRO A   5       8.832  10.998  21.116  0.00  0.00    +0.094 C 
ATOM      9  CG  PRO A   5       9.493  11.011  19.769  0.00  0.00    +0.024 C 
ATOM     10  CB  PRO A   5       9.061   9.694  19.143  0.00  0.00    +0.031 C 
ATOM     11  CA  PRO A   5       9.065   8.703  20.296  0.00  0.00    +0.152 C 
BRANCH   5  12
ATOM     12  CA  ALA A   4       8.524   9.983  23.836  0.00  0.00    +0.149 C 
ATOM     13  CB  ALA A   4       9.855  10.195  24.460  0.00  0.00    +0.031 C 
BRANCH  12  15
ATOM     14  C   PRO A   3       6.426   8.928  24.435  0.00  0.00    +0.241 C 
ATOM     15  N   ALA A   4       7.640   9.340  24.777  0.00  0.00    -0.297 N 
ATOM     16  H   ALA A   4       7.964   9.195  25.754  0.00  0.00    +0.150 HD
ATOM     17  O   PRO A   3       5.894   9.205  23.349  0.00  0.00    -0.273 OA
BRANCH  14  21
ATOM     18  C   LEU A   2       3.782   9.526  25.862  0.00  0.00    +0.244 C 
ATOM     19  O   LEU A   2       4.506  10.494  26.117  0.00  0.00    -0.273 OA
ATOM     20  N   PRO A   3       4.269   8.323  25.554  0.00  0.00    -0.272 N 
ATOM     21  CA  PRO A   3       5.713   8.079  25.489  0.00  0.00    +0.152 C 
ATOM     22  CB  PRO A   3       5.795   6.616  25.084  0.00  0.00    +0.031 C 
ATOM     23  CG  PRO A   3       4.484   6.035  25.509  0.00  0.00    +0.024 C 
ATOM     24  CD  PRO A   3       3.493   7.108  25.268  0.00  0.00    +0.094 C 
BRANCH  18  25
ATOM     25  CA  LEU A   2       2.264   9.637  25.938  0.00  0.00    +0.149 C 
BRANCH  25  28
ATOM     26  C   GLU A   1       1.202   9.337  28.039  0.00  0.00    +0.238 C 
ATOM     27  O   GLU A   1       0.897   8.208  27.685  0.00  0.00    -0.274 OA
ATOM     28  N   LEU A   2       1.832  10.163  27.231  0.00  0.00    -0.297 N 
ATOM     29  H   LEU A   2       2.015  11.150  27.502  0.00  0.00    +0.150 HD
BRANCH  26  30
ATOM     30  CA  GLU A   1       0.920   9.812  29.469  0.00  0.00    +0.145 C 
BRANCH  30  31
ATOM     31  N   GLU A   1       1.214  11.226  29.695  0.00  0.00    -0.238 NA
ATOM     32  H   GLU A   1       2.027  11.460  30.300  0.00  0.00    +0.142 HD
ENDBRANCH  30  31
BRANCH  30  33
ATOM     33  CB  GLU A   1      -0.516   9.438  29.917  0.00  0.00    +0.038 C 
BRANCH  33  34
ATOM     34  CG  GLU A   1      -0.905   9.952  31.314  0.00  0.00    +0.116 C 
BRANCH  34  35
ATOM     35  CD  GLU A   1      -2.282   9.467  31.768  0.00  0.00    +0.365 C 
ATOM     36  OE2 GLU A   1      -2.942  10.177  32.555  0.00  0.00    -0.246 OA
ATOM     37  OE1 GLU A   1      -2.706   8.369  31.338  0.00  0.00    -0.246 OA
ENDBRANCH  34  35
ENDBRANCH  33  34
ENDBRANCH  30  33
ENDBRANCH  26  30
ENDBRANCH  25  28
BRANCH  25  38
ATOM     38  CB  LEU A   2       1.668  10.443  24.771  0.00  0.00    +0.029 C 
BRANCH  38  39
ATOM     39  CG  LEU A   2       2.166  11.856  24.489  0.00  0.00    +0.002 C 
ATOM     40  CD2 LEU A   2       0.994  12.799  24.408  0.00  0.00    +0.000 C 
ATOM     41  CD1 LEU A   2       2.929  11.883  23.180  0.00  0.00    +0.000 C 
ENDBRANCH  38  39
ENDBRANCH  25  38
ENDBRANCH  18  25
ENDBRANCH  14  21
ENDBRANCH  12  15
ENDBRANCH   5  12
ENDBRANCH   1  11
BRANCH   3  42
ATOM     42  CA  THR A   6      11.766   6.158  19.581  0.00  0.00    +0.176 C 
BRANCH  42  43
ATOM     43  C   THR A   6      12.328   6.758  18.299  0.00  0.00    +0.243 C 
ATOM     44  N   LEU A   7      13.606   6.516  18.042  0.00  0.00    -0.297 N 
ATOM     45  H   LEU A   7      14.172   5.950  18.706  0.00  0.00    +0.150 HD
ATOM     46  O   THR A   6      11.608   7.420  17.536  0.00  0.00    -0.273 OA
BRANCH  44  47
ATOM     47  CA  LEU A   7      14.220   7.045  16.823  0.00  0.00    +0.149 C 
BRANCH  47  48
ATOM     48  C   LEU A   7      13.540   6.595  15.545  0.00  0.00    +0.241 C 
ATOM     49  N   VAL A   8      13.162   5.318  15.479  0.00  0.00    -0.297 N 
ATOM     50  H   VAL A   8      13.357   4.692  16.286  0.00  0.00    +0.150 HD
ATOM     51  O   LEU A   7      13.381   7.401  14.621  0.00  0.00    -0.273 OA
BRANCH  49  52
ATOM     52  CA  VAL A   8      12.489   4.779  14.320  0.00  0.00    +0.149 C 
BRANCH  52  53
ATOM     53  C   VAL A   8      11.110   5.438  14.138  0.00  0.00    +0.241 C 
ATOM     54  N   GLU A   9      10.417   5.716  15.246  0.00  0.00    -0.298 N 
ATOM     55  H   GLU A   9      10.782   5.390  16.164  0.00  0.00    +0.150 HD
ATOM     56  O   VAL A   8      10.699   5.716  13.011  0.00  0.00    -0.273 OA
BRANCH  54  57
ATOM     57  CA  GLU A   9       9.148   6.473  15.208  0.00  0.00    +0.137 C 
BRANCH  57  58
ATOM     58  C   GLU A   9       9.323   7.918  14.724  0.00  0.00    +0.227 C 
ATOM     59  O   GLU A   9       8.415   8.518  14.128  0.00  0.00    -0.286 OA
ENDBRANCH  57  58
BRANCH  57  60
ATOM     60  CB  GLU A   9       8.473   6.467  16.585  0.00  0.00    +0.039 C 
BRANCH  60  61
ATOM     61  CG  GLU A   9       7.571   5.278  16.798  0.00  0.00    +0.116 C 
BRANCH  61  62
ATOM     62  CD  GLU A   9       7.341   4.984  18.261  0.00  0.00    +0.365 C 
ATOM     63  OE2 GLU A   9       7.846   5.748  19.117  0.00  0.00    -0.246 OA
ATOM     64  OE1 GLU A   9       6.656   3.981  18.543  0.00  0.00    -0.246 OA
ENDBRANCH  61  62
ENDBRANCH  60  61
ENDBRANCH  57  60
ENDBRANCH  54  57
ENDBRANCH  52  53
BRANCH  52  65
ATOM     65  CB  VAL A   8      12.385   3.234  14.399  0.00  0.00    +0.027 C 
ATOM     66  CG2 VAL A   8      11.457   2.797  15.552  0.00  0.00    +0.002 C 
ATOM     67  CG1 VAL A   8      11.901   2.678  13.073  0.00  0.00    +0.002 C 
ENDBRANCH  52  65
ENDBRANCH  49  52
ENDBRANCH  47  48
BRANCH  47  68
ATOM     68  CB  LEU A   7      15.706   6.708  16.754  0.00  0.00    +0.029 C 
BRANCH  68  69
ATOM     69  CG  LEU A   7      16.607   7.255  17.872  0.00  0.00    +0.002 C 
ATOM     70  CD2 LEU A   7      16.481   8.778  17.937  0.00  0.00    +0.000 C 
ATOM     71  CD1 LEU A   7      18.057   6.891  17.608  0.00  0.00    +0.000 C 
ENDBRANCH  68  69
ENDBRANCH  47  68
ENDBRANCH  44  47
ENDBRANCH  42  43
BRANCH  42  72
ATOM     72  CB  THR A   6      11.577   4.660  19.364  0.00  0.00    +0.137 C 
ATOM     73  CG2 THR A   6      10.982   4.020  20.584  0.00  0.00    +0.034 C 
BRANCH  72  74
ATOM     74  OG1 THR A   6      10.683   4.468  18.272  0.00  0.00    -0.382 OA
ATOM     75  HG1 THR A   6      10.552   3.498  18.121  0.00  0.00    +0.210 HD
ENDBRANCH  72  74
ENDBRANCH  42  72
ENDBRANCH   3  42
TORSDOF 29
REMARK  Name = ../refined-set-2016/3re4/3re4_pocket.pdb
REMARK  192 active torsions:
REMARK  status: ('A' for Active; 'I' for Inactive)
REMARK    1  A    between atoms: _1  and  _3
REMARK    2  A    between atoms: _3  and  _4
REMARK    3  A    between atoms: _3  and  _6
REMARK    4  A    between atoms: _9  and  _11
REMARK    5  A    between atoms: _11  and  _12
REMARK    6  A    between atoms: _11  and  _14
REMARK    7  A    between atoms: _14  and  _15
REMARK    8  A    between atoms: _18  and  _20
REMARK    9  A    between atoms: _20  and  _21
REMARK   10  A    between atoms: _20  and  _23
REMARK   11  A    between atoms: _23  and  _24
REMARK   12  A    between atoms: _26  and  _28
REMARK   13  A    between atoms: _28  and  _29
REMARK   14  A    between atoms: _28  and  _31
REMARK   15  A    between atoms: _31  and  _32
REMARK   16  A    between atoms: _35  and  _37
REMARK   17  A    between atoms: _37  and  _38
REMARK   18  A    between atoms: _40  and  _42
REMARK   19  A    between atoms: _42  and  _43
REMARK   20  A    between atoms: _46  and  _48
REMARK   21  A    between atoms: _48  and  _49
REMARK   22  A    between atoms: _48  and  _51
REMARK   23  A    between atoms: _51  and  _52
REMARK   24  A    between atoms: _57  and  _59
REMARK   25  A    between atoms: _59  and  _60
REMARK   26  A    between atoms: _59  and  _62
REMARK   27  A    between atoms: _65  and  _67
REMARK   28  A    between atoms: _67  and  _68
REMARK   29  A    between atoms: _67  and  _70
REMARK   30  A    between atoms: _70  and  _71
REMARK   31  A    between atoms: _77  and  _79
REMARK   32  A    between atoms: _79  and  _80
REMARK   33  A    between atoms: _79  and  _82
REMARK   34  A    between atoms: _82  and  _83
REMARK   35  A    between atoms: _88  and  _89
REMARK   36  A    between atoms: _91  and  _93
REMARK   37  A    between atoms: _93  and  _94
REMARK   38  A    between atoms: _97  and  _99
REMARK   39  A    between atoms: _99  and  _100
REMARK   40  A    between atoms: _103  and  _105
REMARK   41  A    between atoms: _105  and  _106
REMARK   42  A    between atoms: _105  and  _108
REMARK   43  A    between atoms: _108  and  _109
REMARK   44  A    between atoms: _109  and  _110
REMARK   45  A    between atoms: _112  and  _114
REMARK   46  A    between atoms: _114  and  _115
REMARK   47  A    between atoms: _118  and  _120
REMARK   48  A    between atoms: _120  and  _121
REMARK   49  A    between atoms: _120  and  _123
REMARK   50  A    between atoms: _126  and  _128
REMARK   51  A    between atoms: _128  and  _129
REMARK   52  A    between atoms: _128  and  _131
REMARK   53  A    between atoms: _131  and  _132
REMARK   54  A    between atoms: _132  and  _133
REMARK   55  A    between atoms: _133  and  _134
REMARK   56  A    between atoms: _134  and  _135
REMARK   57  A    between atoms: _139  and  _141
REMARK   58  A    between atoms: _141  and  _142
REMARK   59  A    between atoms: _141  and  _144
REMARK   60  A    between atoms: _144  and  _145
REMARK   61  A    between atoms: _148  and  _150
REMARK   62  A    between atoms: _150  and  _151
REMARK   63  A    between atoms: _150  and  _153
REMARK   64  A    between atoms: _153  and  _154
REMARK   65  A    between atoms: _159  and  _160
REMARK   66  A    between atoms: _162  and  _164
REMARK   67  A    between atoms: _164  and  _165
REMARK   68  A    between atoms: _164  and  _167
REMARK   69  A    between atoms: _167  and  _168
REMARK   70  A    between atoms: _168  and  _169
REMARK   71  A    between atoms: _172  and  _174
REMARK   72  A    between atoms: _174  and  _175
REMARK   73  A    between atoms: _174  and  _177
REMARK   74  A    between atoms: _177  and  _178
REMARK   75  A    between atoms: _181  and  _183
REMARK   76  A    between atoms: _183  and  _184
REMARK   77  A    between atoms: _183  and  _186
REMARK   78  A    between atoms: _190  and  _191
REMARK   79  A    between atoms: _196  and  _198
REMARK   80  A    between atoms: _198  and  _199
REMARK   81  A    between atoms: _198  and  _201
REMARK   82  A    between atoms: _201  and  _202
REMARK   83  A    between atoms: _202  and  _203
REMARK   84  A    between atoms: _208  and  _210
REMARK   85  A    between atoms: _210  and  _211
REMARK   86  A    between atoms: _210  and  _213
REMARK   87  A    between atoms: _213  and  _214
REMARK   88  A    between atoms: _217  and  _219
REMARK   89  A    between atoms: _219  and  _220
REMARK   90  A    between atoms: _219  and  _222
REMARK   91  A    between atoms: _222  and  _223
REMARK   92  A    between atoms: _226  and  _228
REMARK   93  A    between atoms: _228  and  _229
REMARK   94  A    between atoms: _228  and  _231
REMARK   95  A    between atoms: _231  and  _232
REMARK   96  A    between atoms: _232  and  _233
REMARK   97  A    between atoms: _235  and  _237
REMARK   98  A    between atoms: _237  and  _238
REMARK   99  A    between atoms: _237  and  _240
REMARK  100  A    between atoms: _240  and  _241
REMARK  101  A    between atoms: _241  and  _242
REMARK  102  A    between atoms: _245  and  _247
REMARK  103  A    between atoms: _247  and  _248
REMARK  104  A    between atoms: _247  and  _250
REMARK  105  A    between atoms: _250  and  _251
REMARK  106  A    between atoms: _257  and  _259
REMARK  107  A    between atoms: _259  and  _260
REMARK  108  A    between atoms: _259  and  _262
REMARK  109  A    between atoms: _262  and  _263
REMARK  110  A    between atoms: _266  and  _268
REMARK  111  A    between atoms: _268  and  _269
REMARK  112  A    between atoms: _271  and  _273
REMARK  113  A    between atoms: _273  and  _274
REMARK  114  A    between atoms: _273  and  _276
REMARK  115  A    between atoms: _276  and  _277
REMARK  116  A    between atoms: _277  and  _278
REMARK  117  A    between atoms: _281  and  _283
REMARK  118  A    between atoms: _283  and  _284
REMARK  119  A    between atoms: _283  and  _286
REMARK  120  A    between atoms: _286  and  _287
REMARK  121  A    between atoms: _287  and  _288
REMARK  122  A    between atoms: _291  and  _293
REMARK  123  A    between atoms: _293  and  _294
REMARK  124  A    between atoms: _293  and  _296
REMARK  125  A    between atoms: _296  and  _297
REMARK  126  A    between atoms: _301  and  _302
REMARK  127  A    between atoms: _307  and  _309
REMARK  128  A    between atoms: _309  and  _310
REMARK  129  A    between atoms: _314  and  _315
REMARK  130  A    between atoms: _320  and  _322
REMARK  131  A    between atoms: _322  and  _323
REMARK  132  A    between atoms: _322  and  _325
REMARK  133  A    between atoms: _325  and  _326
REMARK  134  A    between atoms: _329  and  _331
REMARK  135  A    between atoms: _331  and  _332
REMARK  136  A    between atoms: _331  and  _334
REMARK  137  A    between atoms: _334  and  _335
REMARK  138  A    between atoms: _338  and  _340
REMARK  139  A    between atoms: _340  and  _341
REMARK  140  A    between atoms: _340  and  _343
REMARK  141  A    between atoms: _346  and  _348
REMARK  142  A    between atoms: _348  and  _349
REMARK  143  A    between atoms: _348  and  _351
REMARK  144  A    between atoms: _351  and  _352
REMARK  145  A    between atoms: _352  and  _353
REMARK  146  A    between atoms: _356  and  _358
REMARK  147  A    between atoms: _358  and  _359
REMARK  148  A    between atoms: _358  and  _361
REMARK  149  A    between atoms: _361  and  _362
REMARK  150  A    between atoms: _362  and  _363
REMARK  151  A    between atoms: _366  and  _368
REMARK  152  A    between atoms: _368  and  _369
REMARK  153  A    between atoms: _368  and  _371
REMARK  154  A    between atoms: _371  and  _372
REMARK  155  A    between atoms: _377  and  _378
REMARK  156  A    between atoms: _380  and  _382
REMARK  157  A    between atoms: _382  and  _383
REMARK  158  A    between atoms: _382  and  _385
REMARK  159  A    between atoms: _385  and  _386
REMARK  160  A    between atoms: _391  and  _393
REMARK  161  A    between atoms: _393  and  _394
REMARK  162  A    between atoms: _393  and  _396
REMARK  163  A    between atoms: _396  and  _397
REMARK  164  A    between atoms: _400  and  _402
REMARK  165  A    between atoms: _402  and  _403
REMARK  166  A    between atoms: _402  and  _405
REMARK  167  A    between atoms: _405  and  _406
REMARK  168  A    between atoms: _406  and  _407
REMARK  169  A    between atoms: _409  and  _411
REMARK  170  A    between atoms: _411  and  _412
REMARK  171  A    between atoms: _411  and  _414
REMARK  172  A    between atoms: _414  and  _415
REMARK  173  A    between atoms: _420  and  _421
REMARK  174  A    between atoms: _423  and  _425
REMARK  175  A    between atoms: _425  and  _426
REMARK  176  A    between atoms: _425  and  _428
REMARK  177  A    between atoms: _428  and  _429
REMARK  178  A    between atoms: _435  and  _437
REMARK  179  A    between atoms: _437  and  _438
REMARK  180  A    between atoms: _437  and  _440
REMARK  181  A    between atoms: _440  and  _441
REMARK  182  A    between atoms: _444  and  _446
REMARK  183  A    between atoms: _446  and  _447
REMARK  184  A    between atoms: _446  and  _449
REMARK  185  A    between atoms: _449  and  _450
REMARK  186  A    between atoms: _453  and  _455
REMARK  187  A    between atoms: _455  and  _456
REMARK  188  A    between atoms: _455  and  _458
REMARK  189  A    between atoms: _458  and  _459
REMARK  190  A    between atoms: _459  and  _460
REMARK  191  A    between atoms: _462  and  _464
REMARK  192  A    between atoms: _464  and  _465
REMARK                            x       y       z     vdW  Elec       q    Type
REMARK                         _______ _______ _______ _____ _____    ______ ____
ROOT
ATOM      1  CA  ASN A   3      15.266   1.228  21.895  0.00  0.00    +0.158 C 
ENDROOT
BRANCH   1   4
ATOM      2  C   TYR A   2      14.019   0.809  19.876  0.00  0.00    +0.241 C 
ATOM      3  O   TYR A   2      12.993   0.733  20.547  0.00  0.00    -0.273 OA
ATOM      4  N   ASN A   3      15.203   1.052  20.432  0.00  0.00    -0.297 N 
ATOM      5  H   ASN A   3      16.062   1.116  19.850  0.00  0.00    +0.150 HD
BRANCH   2   6
ATOM      6  CA  TYR A   2      13.956   0.648  18.354  0.00  0.00    +0.153 C 
BRANCH   6   8
ATOM      7  C   GLU A   1      15.268   2.436  17.347  0.00  0.00    +0.238 C 
ATOM      8  N   TYR A   2      15.144   1.149  17.677  0.00  0.00    -0.297 N 
ATOM      9  H   TYR A   2      15.913   0.489  17.445  0.00  0.00    +0.150 HD
ATOM     10  O   GLU A   1      14.384   3.269  17.562  0.00  0.00    -0.274 OA
BRANCH   7  11
ATOM     11  CA  GLU A   1      16.580   2.845  16.681  0.00  0.00    +0.145 C 
BRANCH  11  12
ATOM     12  N   GLU A   1      17.564   1.784  16.769  0.00  0.00    -0.238 NA
ATOM     13  H   GLU A   1      17.869   1.311  15.894  0.00  0.00    +0.142 HD
ENDBRANCH  11  12
BRANCH  11  14
ATOM     14  CB  GLU A   1      16.340   3.160  15.199  0.00  0.00    +0.038 C 
BRANCH  14  15
ATOM     15  CG  GLU A   1      15.805   1.978  14.399  0.00  0.00    +0.116 C 
BRANCH  15  16
ATOM     16  CD  GLU A   1      16.906   1.166  13.713  0.00  0.00    +0.365 C 
ATOM     17  OE2 GLU A   1      17.975   0.982  14.307  0.00  0.00    -0.246 OA
ATOM     18  OE1 GLU A   1      16.714   0.719  12.553  0.00  0.00    -0.246 OA
ENDBRANCH  15  16
ENDBRANCH  14  15
ENDBRANCH  11  14
ENDBRANCH   7  11
ENDBRANCH   6   8
BRANCH   6  19
ATOM     19  CB  TYR A   2      13.674  -0.826  18.006  0.00  0.00    +0.055 C 
BRANCH  19  20
ATOM     20  CG  TYR A   2      13.426  -1.021  16.535  0.00  0.00    -0.020 A 
ATOM     21  CD2 TYR A   2      12.161  -0.844  15.992  0.00  0.00    -0.001 A 
ATOM     22  CE2 TYR A   2      11.942  -1.019  14.617  0.00  0.00    +0.036 A 
ATOM     23  CZ  TYR A   2      13.003  -1.347  13.789  0.00  0.00    +0.134 A 
ATOM     24  CE1 TYR A   2      14.266  -1.528  14.308  0.00  0.00    +0.036 A 
ATOM     25  CD1 TYR A   2      14.470  -1.358  15.684  0.00  0.00    -0.001 A 
BRANCH  23  26
ATOM     26  OH  TYR A   2      12.810  -1.527  12.438  0.00  0.00    -0.506 OA
ATOM     27  HH  TYR A   2      11.859  -1.363  12.217  0.00  0.00    +0.292 HD
ENDBRANCH  23  26
ENDBRANCH  19  20
ENDBRANCH   6  19
ENDBRANCH   2   6
ENDBRANCH   1   4
BRANCH   1  28
ATOM     28  C   ASN A   3      16.070   2.458  22.323  0.00  0.00    +0.241 C 
ATOM     29  O   ASN A   3      16.687   2.506  23.392  0.00  0.00    -0.273 OA
ATOM     30  N   ILE A   4      16.028   3.478  21.479  0.00  0.00    -0.297 N 
ATOM     31  H   ILE A   4      15.621   3.342  20.532  0.00  0.00    +0.150 HD
BRANCH  30  32
ATOM     32  CA  ILE A   4      16.546   4.797  21.859  0.00  0.00    +0.149 C 
BRANCH  32  33
ATOM     33  C   ILE A   4      15.348   5.710  21.754  0.00  0.00    +0.241 C 
ATOM     34  N   MET A   5      14.994   6.385  22.844  0.00  0.00    -0.298 N 
ATOM     35  H   MET A   5      15.491   6.231  23.744  0.00  0.00    +0.150 HD
ATOM     36  O   ILE A   4      14.696   5.756  20.696  0.00  0.00    -0.273 OA
BRANCH  34  37
ATOM     37  CA  MET A   5      13.885   7.357  22.758  0.00  0.00    +0.138 C 
BRANCH  37  38
ATOM     38  C   MET A   5      14.446   8.765  22.790  0.00  0.00    +0.227 C 
ATOM     39  O   MET A   5      15.596   8.955  23.186  0.00  0.00    -0.286 OA
ENDBRANCH  37  38
BRANCH  37  40
ATOM     40  CB  MET A   5      12.851   7.150  23.872  0.00  0.00    +0.039 C 
BRANCH  40  41
ATOM     41  CG  MET A   5      12.347   5.688  24.025  0.00  0.00    +0.060 C 
BRANCH  41  42
ATOM     42  SD  MET A   5      11.359   5.502  25.520  0.00  0.00    -0.139 S 
ATOM     43  CE  MET A   5       9.966   6.594  25.121  0.00  0.00    +0.069 C 
ENDBRANCH  41  42
ENDBRANCH  40  41
ENDBRANCH  37  40
ENDBRANCH  34  37
ENDBRANCH  32  33
BRANCH  32  44
ATOM     44  CB  ILE A   4      17.626   5.262  20.920  0.00  0.00    +0.027 C 
ATOM     45  CG2 ILE A   4      18.009   6.751  21.180  0.00  0.00    +0.002 C 
BRANCH  44  46
ATOM     46  CG1 ILE A   4      18.855   4.344  21.037  0.00  0.00    +0.002 C 
ATOM     47  CD1 ILE A   4      19.845   4.515  19.886  0.00  0.00    +0.000 C 
ENDBRANCH  44  46
ENDBRANCH  32  44
ENDBRANCH  30  32
ENDBRANCH   1  28
BRANCH   1  48
ATOM     48  CB  ASN A   3      15.661  -0.064  22.626  0.00  0.00    +0.114 C 
BRANCH  48  49
ATOM     49  CG  ASN A   3      16.879  -0.717  22.039  0.00  0.00    +0.222 C 
ATOM     50  ND2 ASN A   3      16.866  -2.060  21.933  0.00  0.00    -0.329 N 
ATOM     51 HD21 ASN A   3      16.032  -2.598  22.244  0.00  0.00    +0.145 HD
ATOM     52 HD22 ASN A   3      17.690  -2.559  21.540  0.00  0.00    +0.145 HD
ATOM     53  OD1 ASN A   3      17.831  -0.031  21.690  0.00  0.00    -0.275 OA
ENDBRANCH  48  49
ENDBRANCH   1  48
TORSDOF 23
REMARK  Name = ../refined-set-2016/3re4/3re4_pocket.pdb
REMARK  192 active torsions:
REMARK  status: ('A' for Active; 'I' for Inactive)
REMARK    1  A    between atoms: _1  and  _3
REMARK    2  A    between atoms: _3  and  _4
REMARK    3  A    between atoms: _3  and  _6
REMARK    4  A    between atoms: _9  and  _11
REMARK    5  A    between atoms: _11  and  _12
REMARK    6  A    between atoms: _11  and  _14
REMARK    7  A    between atoms: _14  and  _15
REMARK    8  A    between atoms: _18  and  _20
REMARK    9  A    between atoms: _20  and  _21
REMARK   10  A    between atoms: _20  and  _23
REMARK   11  A    between atoms: _23  and  _24
REMARK   12  A    between atoms: _26  and  _28
REMARK   13  A    between atoms: _28  and  _29
REMARK   14  A    between atoms: _28  and  _31
REMARK   15  A    between atoms: _31  and  _32
REMARK   16  A    between atoms: _35  and  _37
REMARK   17  A    between atoms: _37  and  _38
REMARK   18  A    between atoms: _40  and  _42
REMARK   19  A    between atoms: _42  and  _43
REMARK   20  A    between atoms: _46  and  _48
REMARK   21  A    between atoms: _48  and  _49
REMARK   22  A    between atoms: _48  and  _51
REMARK   23  A    between atoms: _51  and  _52
REMARK   24  A    between atoms: _57  and  _59
REMARK   25  A    between atoms: _59  and  _60
REMARK   26  A    between atoms: _59  and  _62
REMARK   27  A    between atoms: _65  and  _67
REMARK   28  A    between atoms: _67  and  _68
REMARK   29  A    between atoms: _67  and  _70
REMARK   30  A    between atoms: _70  and  _71
REMARK   31  A    between atoms: _77  and  _79
REMARK   32  A    between atoms: _79  and  _80
REMARK   33  A    between atoms: _79  and  _82
REMARK   34  A    between atoms: _82  and  _83
REMARK   35  A    between atoms: _88  and  _89
REMARK   36  A    between atoms: _91  and  _93
REMARK   37  A    between atoms: _93  and  _94
REMARK   38  A    between atoms: _97  and  _99
REMARK   39  A    between atoms: _99  and  _100
REMARK   40  A    between atoms: _103  and  _105
REMARK   41  A    between atoms: _105  and  _106
REMARK   42  A    between atoms: _105  and  _108
REMARK   43  A    between atoms: _108  and  _109
REMARK   44  A    between atoms: _109  and  _110
REMARK   45  A    between atoms: _112  and  _114
REMARK   46  A    between atoms: _114  and  _115
REMARK   47  A    between atoms: _118  and  _120
REMARK   48  A    between atoms: _120  and  _121
REMARK   49  A    between atoms: _120  and  _123
REMARK   50  A    between atoms: _126  and  _128
REMARK   51  A    between atoms: _128  and  _129
REMARK   52  A    between atoms: _128  and  _131
REMARK   53  A    between atoms: _131  and  _132
REMARK   54  A    between atoms: _132  and  _133
REMARK   55  A    between atoms: _133  and  _134
REMARK   56  A    between atoms: _134  and  _135
REMARK   57  A    between atoms: _139  and  _141
REMARK   58  A    between atoms: _141  and  _142
REMARK   59  A    between atoms: _141  and  _144
REMARK   60  A    between atoms: _144  and  _145
REMARK   61  A    between atoms: _148  and  _150
REMARK   62  A    between atoms: _150  and  _151
REMARK   63  A    between atoms: _150  and  _153
REMARK   64  A    between atoms: _153  and  _154
REMARK   65  A    between atoms: _159  and  _160
REMARK   66  A    between atoms: _162  and  _164
REMARK   67  A    between atoms: _164  and  _165
REMARK   68  A    between atoms: _164  and  _167
REMARK   69  A    between atoms: _167  and  _168
REMARK   70  A    between atoms: _168  and  _169
REMARK   71  A    between atoms: _172  and  _174
REMARK   72  A    between atoms: _174  and  _175
REMARK   73  A    between atoms: _174  and  _177
REMARK   74  A    between atoms: _177  and  _178
REMARK   75  A    between atoms: _181  and  _183
REMARK   76  A    between atoms: _183  and  _184
REMARK   77  A    between atoms: _183  and  _186
REMARK   78  A    between atoms: _190  and  _191
REMARK   79  A    between atoms: _196  and  _198
REMARK   80  A    between atoms: _198  and  _199
REMARK   81  A    between atoms: _198  and  _201
REMARK   82  A    between atoms: _201  and  _202
REMARK   83  A    between atoms: _202  and  _203
REMARK   84  A    between atoms: _208  and  _210
REMARK   85  A    between atoms: _210  and  _211
REMARK   86  A    between atoms: _210  and  _213
REMARK   87  A    between atoms: _213  and  _214
REMARK   88  A    between atoms: _217  and  _219
REMARK   89  A    between atoms: _219  and  _220
REMARK   90  A    between atoms: _219  and  _222
REMARK   91  A    between atoms: _222  and  _223
REMARK   92  A    between atoms: _226  and  _228
REMARK   93  A    between atoms: _228  and  _229
REMARK   94  A    between atoms: _228  and  _231
REMARK   95  A    between atoms: _231  and  _232
REMARK   96  A    between atoms: _232  and  _233
REMARK   97  A    between atoms: _235  and  _237
REMARK   98  A    between atoms: _237  and  _238
REMARK   99  A    between atoms: _237  and  _240
REMARK  100  A    between atoms: _240  and  _241
REMARK  101  A    between atoms: _241  and  _242
REMARK  102  A    between atoms: _245  and  _247
REMARK  103  A    between atoms: _247  and  _248
REMARK  104  A    between atoms: _247  and  _250
REMARK  105  A    between atoms: _250  and  _251
REMARK  106  A    between atoms: _257  and  _259
REMARK  107  A    between atoms: _259  and  _260
REMARK  108  A    between atoms: _259  and  _262
REMARK  109  A    between atoms: _262  and  _263
REMARK  110  A    between atoms: _266  and  _268
REMARK  111  A    between atoms: _268  and  _269
REMARK  112  A    between atoms: _271  and  _273
REMARK  113  A    between atoms: _273  and  _274
REMARK  114  A    between atoms: _273  and  _276
REMARK  115  A    between atoms: _276  and  _277
REMARK  116  A    between atoms: _277  and  _278
REMARK  117  A    between atoms: _281  and  _283
REMARK  118  A    between atoms: _283  and  _284
REMARK  119  A    between atoms: _283  and  _286
REMARK  120  A    between atoms: _286  and  _287
REMARK  121  A    between atoms: _287  and  _288
REMARK  122  A    between atoms: _291  and  _293
REMARK  123  A    between atoms: _293  and  _294
REMARK  124  A    between atoms: _293  and  _296
REMARK  125  A    between atoms: _296  and  _297
REMARK  126  A    between atoms: _301  and  _302
REMARK  127  A    between atoms: _307  and  _309
REMARK  128  A    between atoms: _309  and  _310
REMARK  129  A    between atoms: _314  and  _315
REMARK  130  A    between atoms: _320  and  _322
REMARK  131  A    between atoms: _322  and  _323
REMARK  132  A    between atoms: _322  and  _325
REMARK  133  A    between atoms: _325  and  _326
REMARK  134  A    between atoms: _329  and  _331
REMARK  135  A    between atoms: _331  and  _332
REMARK  136  A    between atoms: _331  and  _334
REMARK  137  A    between atoms: _334  and  _335
REMARK  138  A    between atoms: _338  and  _340
REMARK  139  A    between atoms: _340  and  _341
REMARK  140  A    between atoms: _340  and  _343
REMARK  141  A    between atoms: _346  and  _348
REMARK  142  A    between atoms: _348  and  _349
REMARK  143  A    between atoms: _348  and  _351
REMARK  144  A    between atoms: _351  and  _352
REMARK  145  A    between atoms: _352  and  _353
REMARK  146  A    between atoms: _356  and  _358
REMARK  147  A    between atoms: _358  and  _359
REMARK  148  A    between atoms: _358  and  _361
REMARK  149  A    between atoms: _361  and  _362
REMARK  150  A    between atoms: _362  and  _363
REMARK  151  A    between atoms: _366  and  _368
REMARK  152  A    between atoms: _368  and  _369
REMARK  153  A    between atoms: _368  and  _371
REMARK  154  A    between atoms: _371  and  _372
REMARK  155  A    between atoms: _377  and  _378
REMARK  156  A    between atoms: _380  and  _382
REMARK  157  A    between atoms: _382  and  _383
REMARK  158  A    between atoms: _382  and  _385
REMARK  159  A    between atoms: _385  and  _386
REMARK  160  A    between atoms: _391  and  _393
REMARK  161  A    between atoms: _393  and  _394
REMARK  162  A    between atoms: _393  and  _396
REMARK  163  A    between atoms: _396  and  _397
REMARK  164  A    between atoms: _400  and  _402
REMARK  165  A    between atoms: _402  and  _403
REMARK  166  A    between atoms: _402  and  _405
REMARK  167  A    between atoms: _405  and  _406
REMARK  168  A    between atoms: _406  and  _407
REMARK  169  A    between atoms: _409  and  _411
REMARK  170  A    between atoms: _411  and  _412
REMARK  171  A    between atoms: _411  and  _414
REMARK  172  A    between atoms: _414  and  _415
REMARK  173  A    between atoms: _420  and  _421
REMARK  174  A    between atoms: _423  and  _425
REMARK  175  A    between atoms: _425  and  _426
REMARK  176  A    between atoms: _425  and  _428
REMARK  177  A    between atoms: _428  and  _429
REMARK  178  A    between atoms: _435  and  _437
REMARK  179  A    between atoms: _437  and  _438
REMARK  180  A    between atoms: _437  and  _440
REMARK  181  A    between atoms: _440  and  _441
REMARK  182  A    between atoms: _444  and  _446
REMARK  183  A    between atoms: _446  and  _447
REMARK  184  A    between atoms: _446  and  _449
REMARK  185  A    between atoms: _449  and  _450
REMARK  186  A    between atoms: _453  and  _455
REMARK  187  A    between atoms: _455  and  _456
REMARK  188  A    between atoms: _455  and  _458
REMARK  189  A    between atoms: _458  and  _459
REMARK  190  A    between atoms: _459  and  _460
REMARK  191  A    between atoms: _462  and  _464
REMARK  192  A    between atoms: _464  and  _465
REMARK                            x       y       z     vdW  Elec       q    Type
REMARK                         _______ _______ _______ _____ _____    ______ ____
ROOT
ATOM      1  CA  ILE A   3      15.752   1.610  27.074  0.00  0.00    +0.149 C 
ENDROOT
BRANCH   1   4
ATOM      2  C   PHE A   2      17.365   3.450  26.977  0.00  0.00    +0.241 C 
ATOM      3  O   PHE A   2      17.279   3.608  28.202  0.00  0.00    -0.273 OA
ATOM      4  N   ILE A   3      16.648   2.523  26.336  0.00  0.00    -0.297 N 
ATOM      5  H   ILE A   3      16.722   2.443  25.302  0.00  0.00    +0.150 HD
BRANCH   2   6
ATOM      6  CA  PHE A   2      18.394   4.253  26.141  0.00  0.00    +0.153 C 
BRANCH   6   8
ATOM      7  C   TYR A   1      17.532   6.499  25.921  0.00  0.00    +0.239 C 
ATOM      8  N   PHE A   2      18.368   5.665  26.520  0.00  0.00    -0.297 N 
ATOM      9  H   PHE A   2      19.008   6.015  27.262  0.00  0.00    +0.150 HD
ATOM     10  O   TYR A   1      16.858   6.178  24.912  0.00  0.00    -0.274 OA
BRANCH   7  11
ATOM     11  CA  TYR A   1      17.416   7.876  26.515  0.00  0.00    +0.149 C 
BRANCH  11  12
ATOM     12  N   TYR A   1      17.447   8.797  25.391  0.00  0.00    -0.238 NA
ATOM     13  H   TYR A   1      16.844   8.600  24.567  0.00  0.00    +0.142 HD
ENDBRANCH  11  12
BRANCH  11  14
ATOM     14  CB  TYR A   1      16.052   7.945  27.224  0.00  0.00    +0.053 C 
BRANCH  14  15
ATOM     15  CG  TYR A   1      15.750   9.251  27.902  0.00  0.00    -0.020 A 
ATOM     16  CD2 TYR A   1      15.925   9.390  29.283  0.00  0.00    -0.001 A 
ATOM     17  CE2 TYR A   1      15.644  10.591  29.923  0.00  0.00    +0.036 A 
ATOM     18  CZ  TYR A   1      15.196  11.669  29.186  0.00  0.00    +0.134 A 
ATOM     19  CE1 TYR A   1      15.016  11.558  27.808  0.00  0.00    +0.036 A 
ATOM     20  CD1 TYR A   1      15.289  10.343  27.183  0.00  0.00    -0.001 A 
BRANCH  18  21
ATOM     21  OH  TYR A   1      14.925  12.845  29.851  0.00  0.00    -0.506 OA
ATOM     22  HH  TYR A   1      15.496  13.567  29.487  0.00  0.00    +0.292 HD
ENDBRANCH  18  21
ENDBRANCH  14  15
ENDBRANCH  11  14
ENDBRANCH   7  11
ENDBRANCH   6   8
BRANCH   6  23
ATOM     23  CB  PHE A   2      19.792   3.645  26.359  0.00  0.00    +0.055 C 
BRANCH  23  24
ATOM     24  CG  PHE A   2      20.895   4.220  25.484  0.00  0.00    -0.020 A 
ATOM     25  CD2 PHE A   2      22.236   3.916  25.770  0.00  0.00    -0.004 A 
ATOM     26  CE2 PHE A   2      23.291   4.415  24.951  0.00  0.00    -0.000 A 
ATOM     27  CZ  PHE A   2      23.001   5.223  23.838  0.00  0.00    -0.000 A 
ATOM     28  CE1 PHE A   2      21.652   5.537  23.552  0.00  0.00    -0.000 A 
ATOM     29  CD1 PHE A   2      20.611   5.020  24.368  0.00  0.00    -0.004 A 
ENDBRANCH  23  24
ENDBRANCH   6  23
ENDBRANCH   2   6
ENDBRANCH   1   4
BRANCH   1  30
ATOM     30  C   ILE A   3      16.049   0.130  26.779  0.00  0.00    +0.241 C 
ATOM     31  N   ASP A   4      15.289  -0.770  27.395  0.00  0.00    -0.297 N 
ATOM     32  H   ASP A   4      14.552  -0.453  28.056  0.00  0.00    +0.150 HD
ATOM     33  O   ILE A   3      16.947  -0.192  25.983  0.00  0.00    -0.273 OA
BRANCH  31  34
ATOM     34  CA  ASP A   4      15.477  -2.200  27.154  0.00  0.00    +0.160 C 
BRANCH  34  35
ATOM     35  C   ASP A   4      16.931  -2.631  27.404  0.00  0.00    +0.241 C 
ATOM     36  N   MET A   5      17.287  -2.685  28.696  0.00  0.00    -0.297 N 
ATOM     37  H   MET A   5      16.546  -2.499  29.402  0.00  0.00    +0.150 HD
ATOM     38  O   ASP A   4      17.687  -2.880  26.472  0.00  0.00    -0.273 OA
BRANCH  36  39
ATOM     39  CA  MET A   5      18.638  -2.985  29.199  0.00  0.00    +0.149 C 
BRANCH  39  40
ATOM     40  C   MET A   5      18.746  -4.387  29.789  0.00  0.00    +0.241 C 
ATOM     41  O   MET A   5      19.776  -4.757  30.366  0.00  0.00    -0.273 OA
ATOM     42  N   GLY A   6      17.684  -5.167  29.664  0.00  0.00    -0.296 N 
ATOM     43  H   GLY A   6      16.837  -4.808  29.179  0.00  0.00    +0.150 HD
BRANCH  42  44
ATOM     44  CA  GLY A   6      17.687  -6.516  30.195  0.00  0.00    +0.163 C 
BRANCH  44  45
ATOM     45  C   GLY A   6      18.912  -7.286  29.747  0.00  0.00    +0.229 C 
ATOM     46  O   GLY A   6      19.545  -7.923  30.568  0.00  0.00    -0.286 OA
ENDBRANCH  44  45
ENDBRANCH  42  44
ENDBRANCH  39  40
BRANCH  39  47
ATOM     47  CB  MET A   5      19.033  -2.010  30.316  0.00  0.00    +0.041 C 
BRANCH  47  48
ATOM     48  CG  MET A   5      19.039  -0.535  29.960  0.00  0.00    +0.060 C 
BRANCH  48  49
ATOM     49  SD  MET A   5      20.536  -0.004  29.115  0.00  0.00    -0.139 S 
ATOM     50  CE  MET A   5      21.836  -0.879  29.956  0.00  0.00    +0.069 C 
ENDBRANCH  48  49
ENDBRANCH  47  48
ENDBRANCH  39  47
ENDBRANCH  36  39
ENDBRANCH  34  35
BRANCH  34  51
ATOM     51  CB  ASP A   4      14.964  -2.582  25.729  0.00  0.00    +0.143 C 
BRANCH  51  52
ATOM     52  CG  ASP A   4      13.446  -2.388  25.592  0.00  0.00    +0.367 C 
ATOM     53  OD2 ASP A   4      12.781  -2.207  26.653  0.00  0.00    -0.246 OA
ATOM     54  OD1 ASP A   4      12.910  -2.401  24.475  0.00  0.00    -0.246 OA
ENDBRANCH  51  52
ENDBRANCH  34  51
ENDBRANCH  31  34
ENDBRANCH   1  30
BRANCH   1  55
ATOM     55  CB  ILE A   3      14.265   1.930  26.811  0.00  0.00    +0.027 C 
ATOM     56  CG2 ILE A   3      13.957   3.321  27.262  0.00  0.00    +0.002 C 
BRANCH  55  57
ATOM     57  CG1 ILE A   3      13.960   1.831  25.302  0.00  0.00    +0.002 C 
ATOM     58  CD1 ILE A   3      12.496   1.496  24.989  0.00  0.00    +0.000 C 
ENDBRANCH  55  57
ENDBRANCH   1  55
TORSDOF 24
REMARK  Name = ../refined-set-2016/3re4/3re4_pocket.pdb
REMARK  192 active torsions:
REMARK  status: ('A' for Active; 'I' for Inactive)
REMARK    1  A    between atoms: _1  and  _3
REMARK    2  A    between atoms: _3  and  _4
REMARK    3  A    between atoms: _3  and  _6
REMARK    4  A    between atoms: _9  and  _11
REMARK    5  A    between atoms: _11  and  _12
REMARK    6  A    between atoms: _11  and  _14
REMARK    7  A    between atoms: _14  and  _15
REMARK    8  A    between atoms: _18  and  _20
REMARK    9  A    between atoms: _20  and  _21
REMARK   10  A    between atoms: _20  and  _23
REMARK   11  A    between atoms: _23  and  _24
REMARK   12  A    between atoms: _26  and  _28
REMARK   13  A    between atoms: _28  and  _29
REMARK   14  A    between atoms: _28  and  _31
REMARK   15  A    between atoms: _31  and  _32
REMARK   16  A    between atoms: _35  and  _37
REMARK   17  A    between atoms: _37  and  _38
REMARK   18  A    between atoms: _40  and  _42
REMARK   19  A    between atoms: _42  and  _43
REMARK   20  A    between atoms: _46  and  _48
REMARK   21  A    between atoms: _48  and  _49
REMARK   22  A    between atoms: _48  and  _51
REMARK   23  A    between atoms: _51  and  _52
REMARK   24  A    between atoms: _57  and  _59
REMARK   25  A    between atoms: _59  and  _60
REMARK   26  A    between atoms: _59  and  _62
REMARK   27  A    between atoms: _65  and  _67
REMARK   28  A    between atoms: _67  and  _68
REMARK   29  A    between atoms: _67  and  _70
REMARK   30  A    between atoms: _70  and  _71
REMARK   31  A    between atoms: _77  and  _79
REMARK   32  A    between atoms: _79  and  _80
REMARK   33  A    between atoms: _79  and  _82
REMARK   34  A    between atoms: _82  and  _83
REMARK   35  A    between atoms: _88  and  _89
REMARK   36  A    between atoms: _91  and  _93
REMARK   37  A    between atoms: _93  and  _94
REMARK   38  A    between atoms: _97  and  _99
REMARK   39  A    between atoms: _99  and  _100
REMARK   40  A    between atoms: _103  and  _105
REMARK   41  A    between atoms: _105  and  _106
REMARK   42  A    between atoms: _105  and  _108
REMARK   43  A    between atoms: _108  and  _109
REMARK   44  A    between atoms: _109  and  _110
REMARK   45  A    between atoms: _112  and  _114
REMARK   46  A    between atoms: _114  and  _115
REMARK   47  A    between atoms: _118  and  _120
REMARK   48  A    between atoms: _120  and  _121
REMARK   49  A    between atoms: _120  and  _123
REMARK   50  A    between atoms: _126  and  _128
REMARK   51  A    between atoms: _128  and  _129
REMARK   52  A    between atoms: _128  and  _131
REMARK   53  A    between atoms: _131  and  _132
REMARK   54  A    between atoms: _132  and  _133
REMARK   55  A    between atoms: _133  and  _134
REMARK   56  A    between atoms: _134  and  _135
REMARK   57  A    between atoms: _139  and  _141
REMARK   58  A    between atoms: _141  and  _142
REMARK   59  A    between atoms: _141  and  _144
REMARK   60  A    between atoms: _144  and  _145
REMARK   61  A    between atoms: _148  and  _150
REMARK   62  A    between atoms: _150  and  _151
REMARK   63  A    between atoms: _150  and  _153
REMARK   64  A    between atoms: _153  and  _154
REMARK   65  A    between atoms: _159  and  _160
REMARK   66  A    between atoms: _162  and  _164
REMARK   67  A    between atoms: _164  and  _165
REMARK   68  A    between atoms: _164  and  _167
REMARK   69  A    between atoms: _167  and  _168
REMARK   70  A    between atoms: _168  and  _169
REMARK   71  A    between atoms: _172  and  _174
REMARK   72  A    between atoms: _174  and  _175
REMARK   73  A    between atoms: _174  and  _177
REMARK   74  A    between atoms: _177  and  _178
REMARK   75  A    between atoms: _181  and  _183
REMARK   76  A    between atoms: _183  and  _184
REMARK   77  A    between atoms: _183  and  _186
REMARK   78  A    between atoms: _190  and  _191
REMARK   79  A    between atoms: _196  and  _198
REMARK   80  A    between atoms: _198  and  _199
REMARK   81  A    between atoms: _198  and  _201
REMARK   82  A    between atoms: _201  and  _202
REMARK   83  A    between atoms: _202  and  _203
REMARK   84  A    between atoms: _208  and  _210
REMARK   85  A    between atoms: _210  and  _211
REMARK   86  A    between atoms: _210  and  _213
REMARK   87  A    between atoms: _213  and  _214
REMARK   88  A    between atoms: _217  and  _219
REMARK   89  A    between atoms: _219  and  _220
REMARK   90  A    between atoms: _219  and  _222
REMARK   91  A    between atoms: _222  and  _223
REMARK   92  A    between atoms: _226  and  _228
REMARK   93  A    between atoms: _228  and  _229
REMARK   94  A    between atoms: _228  and  _231
REMARK   95  A    between atoms: _231  and  _232
REMARK   96  A    between atoms: _232  and  _233
REMARK   97  A    between atoms: _235  and  _237
REMARK   98  A    between atoms: _237  and  _238
REMARK   99  A    between atoms: _237  and  _240
REMARK  100  A    between atoms: _240  and  _241
REMARK  101  A    between atoms: _241  and  _242
REMARK  102  A    between atoms: _245  and  _247
REMARK  103  A    between atoms: _247  and  _248
REMARK  104  A    between atoms: _247  and  _250
REMARK  105  A    between atoms: _250  and  _251
REMARK  106  A    between atoms: _257  and  _259
REMARK  107  A    between atoms: _259  and  _260
REMARK  108  A    between atoms: _259  and  _262
REMARK  109  A    between atoms: _262  and  _263
REMARK  110  A    between atoms: _266  and  _268
REMARK  111  A    between atoms: _268  and  _269
REMARK  112  A    between atoms: _271  and  _273
REMARK  113  A    between atoms: _273  and  _274
REMARK  114  A    between atoms: _273  and  _276
REMARK  115  A    between atoms: _276  and  _277
REMARK  116  A    between atoms: _277  and  _278
REMARK  117  A    between atoms: _281  and  _283
REMARK  118  A    between atoms: _283  and  _284
REMARK  119  A    between atoms: _283  and  _286
REMARK  120  A    between atoms: _286  and  _287
REMARK  121  A    between atoms: _287  and  _288
REMARK  122  A    between atoms: _291  and  _293
REMARK  123  A    between atoms: _293  and  _294
REMARK  124  A    between atoms: _293  and  _296
REMARK  125  A    between atoms: _296  and  _297
REMARK  126  A    between atoms: _301  and  _302
REMARK  127  A    between atoms: _307  and  _309
REMARK  128  A    between atoms: _309  and  _310
REMARK  129  A    between atoms: _314  and  _315
REMARK  130  A    between atoms: _320  and  _322
REMARK  131  A    between atoms: _322  and  _323
REMARK  132  A    between atoms: _322  and  _325
REMARK  133  A    between atoms: _325  and  _326
REMARK  134  A    between atoms: _329  and  _331
REMARK  135  A    between atoms: _331  and  _332
REMARK  136  A    between atoms: _331  and  _334
REMARK  137  A    between atoms: _334  and  _335
REMARK  138  A    between atoms: _338  and  _340
REMARK  139  A    between atoms: _340  and  _341
REMARK  140  A    between atoms: _340  and  _343
REMARK  141  A    between atoms: _346  and  _348
REMARK  142  A    between atoms: _348  and  _349
REMARK  143  A    between atoms: _348  and  _351
REMARK  144  A    between atoms: _351  and  _352
REMARK  145  A    between atoms: _352  and  _353
REMARK  146  A    between atoms: _356  and  _358
REMARK  147  A    between atoms: _358  and  _359
REMARK  148  A    between atoms: _358  and  _361
REMARK  149  A    between atoms: _361  and  _362
REMARK  150  A    between atoms: _362  and  _363
REMARK  151  A    between atoms: _366  and  _368
REMARK  152  A    between atoms: _368  and  _369
REMARK  153  A    between atoms: _368  and  _371
REMARK  154  A    between atoms: _371  and  _372
REMARK  155  A    between atoms: _377  and  _378
REMARK  156  A    between atoms: _380  and  _382
REMARK  157  A    between atoms: _382  and  _383
REMARK  158  A    between atoms: _382  and  _385
REMARK  159  A    between atoms: _385  and  _386
REMARK  160  A    between atoms: _391  and  _393
REMARK  161  A    between atoms: _393  and  _394
REMARK  162  A    between atoms: _393  and  _396
REMARK  163  A    between atoms: _396  and  _397
REMARK  164  A    between atoms: _400  and  _402
REMARK  165  A    between atoms: _402  and  _403
REMARK  166  A    between atoms: _402  and  _405
REMARK  167  A    between atoms: _405  and  _406
REMARK  168  A    between atoms: _406  and  _407
REMARK  169  A    between atoms: _409  and  _411
REMARK  170  A    between atoms: _411  and  _412
REMARK  171  A    between atoms: _411  and  _414
REMARK  172  A    between atoms: _414  and  _415
REMARK  173  A    between atoms: _420  and  _421
REMARK  174  A    between atoms: _423  and  _425
REMARK  175  A    between atoms: _425  and  _426
REMARK  176  A    between atoms: _425  and  _428
REMARK  177  A    between atoms: _428  and  _429
REMARK  178  A    between atoms: _435  and  _437
REMARK  179  A    between atoms: _437  and  _438
REMARK  180  A    between atoms: _437  and  _440
REMARK  181  A    between atoms: _440  and  _441
REMARK  182  A    between atoms: _444  and  _446
REMARK  183  A    between atoms: _446  and  _447
REMARK  184  A    between atoms: _446  and  _449
REMARK  185  A    between atoms: _449  and  _450
REMARK  186  A    between atoms: _453  and  _455
REMARK  187  A    between atoms: _455  and  _456
REMARK  188  A    between atoms: _455  and  _458
REMARK  189  A    between atoms: _458  and  _459
REMARK  190  A    between atoms: _459  and  _460
REMARK  191  A    between atoms: _462  and  _464
REMARK  192  A    between atoms: _464  and  _465
REMARK                            x       y       z     vdW  Elec       q    Type
REMARK                         _______ _______ _______ _____ _____    ______ ____
ROOT
ATOM      1  O   HOH     1       7.259   5.477  21.877  0.00  0.00    +0.000 OA
ENDROOT
TORSDOF 0
REMARK  Name = ../refined-set-2016/3re4/3re4_pocket.pdb
REMARK  192 active torsions:
REMARK  status: ('A' for Active; 'I' for Inactive)
REMARK    1  A    between atoms: _1  and  _3
REMARK    2  A    between atoms: _3  and  _4
REMARK    3  A    between atoms: _3  and  _6
REMARK    4  A    between atoms: _9  and  _11
REMARK    5  A    between atoms: _11  and  _12
REMARK    6  A    between atoms: _11  and  _14
REMARK    7  A    between atoms: _14  and  _15
REMARK    8  A    between atoms: _18  and  _20
REMARK    9  A    between atoms: _20  and  _21
REMARK   10  A    between atoms: _20  and  _23
REMARK   11  A    between atoms: _23  and  _24
REMARK   12  A    between atoms: _26  and  _28
REMARK   13  A    between atoms: _28  and  _29
REMARK   14  A    between atoms: _28  and  _31
REMARK   15  A    between atoms: _31  and  _32
REMARK   16  A    between atoms: _35  and  _37
REMARK   17  A    between atoms: _37  and  _38
REMARK   18  A    between atoms: _40  and  _42
REMARK   19  A    between atoms: _42  and  _43
REMARK   20  A    between atoms: _46  and  _48
REMARK   21  A    between atoms: _48  and  _49
REMARK   22  A    between atoms: _48  and  _51
REMARK   23  A    between atoms: _51  and  _52
REMARK   24  A    between atoms: _57  and  _59
REMARK   25  A    between atoms: _59  and  _60
REMARK   26  A    between atoms: _59  and  _62
REMARK   27  A    between atoms: _65  and  _67
REMARK   28  A    between atoms: _67  and  _68
REMARK   29  A    between atoms: _67  and  _70
REMARK   30  A    between atoms: _70  and  _71
REMARK   31  A    between atoms: _77  and  _79
REMARK   32  A    between atoms: _79  and  _80
REMARK   33  A    between atoms: _79  and  _82
REMARK   34  A    between atoms: _82  and  _83
REMARK   35  A    between atoms: _88  and  _89
REMARK   36  A    between atoms: _91  and  _93
REMARK   37  A    between atoms: _93  and  _94
REMARK   38  A    between atoms: _97  and  _99
REMARK   39  A    between atoms: _99  and  _100
REMARK   40  A    between atoms: _103  and  _105
REMARK   41  A    between atoms: _105  and  _106
REMARK   42  A    between atoms: _105  and  _108
REMARK   43  A    between atoms: _108  and  _109
REMARK   44  A    between atoms: _109  and  _110
REMARK   45  A    between atoms: _112  and  _114
REMARK   46  A    between atoms: _114  and  _115
REMARK   47  A    between atoms: _118  and  _120
REMARK   48  A    between atoms: _120  and  _121
REMARK   49  A    between atoms: _120  and  _123
REMARK   50  A    between atoms: _126  and  _128
REMARK   51  A    between atoms: _128  and  _129
REMARK   52  A    between atoms: _128  and  _131
REMARK   53  A    between atoms: _131  and  _132
REMARK   54  A    between atoms: _132  and  _133
REMARK   55  A    between atoms: _133  and  _134
REMARK   56  A    between atoms: _134  and  _135
REMARK   57  A    between atoms: _139  and  _141
REMARK   58  A    between atoms: _141  and  _142
REMARK   59  A    between atoms: _141  and  _144
REMARK   60  A    between atoms: _144  and  _145
REMARK   61  A    between atoms: _148  and  _150
REMARK   62  A    between atoms: _150  and  _151
REMARK   63  A    between atoms: _150  and  _153
REMARK   64  A    between atoms: _153  and  _154
REMARK   65  A    between atoms: _159  and  _160
REMARK   66  A    between atoms: _162  and  _164
REMARK   67  A    between atoms: _164  and  _165
REMARK   68  A    between atoms: _164  and  _167
REMARK   69  A    between atoms: _167  and  _168
REMARK   70  A    between atoms: _168  and  _169
REMARK   71  A    between atoms: _172  and  _174
REMARK   72  A    between atoms: _174  and  _175
REMARK   73  A    between atoms: _174  and  _177
REMARK   74  A    between atoms: _177  and  _178
REMARK   75  A    between atoms: _181  and  _183
REMARK   76  A    between atoms: _183  and  _184
REMARK   77  A    between atoms: _183  and  _186
REMARK   78  A    between atoms: _190  and  _191
REMARK   79  A    between atoms: _196  and  _198
REMARK   80  A    between atoms: _198  and  _199
REMARK   81  A    between atoms: _198  and  _201
REMARK   82  A    between atoms: _201  and  _202
REMARK   83  A    between atoms: _202  and  _203
REMARK   84  A    between atoms: _208  and  _210
REMARK   85  A    between atoms: _210  and  _211
REMARK   86  A    between atoms: _210  and  _213
REMARK   87  A    between atoms: _213  and  _214
REMARK   88  A    between atoms: _217  and  _219
REMARK   89  A    between atoms: _219  and  _220
REMARK   90  A    between atoms: _219  and  _222
REMARK   91  A    between atoms: _222  and  _223
REMARK   92  A    between atoms: _226  and  _228
REMARK   93  A    between atoms: _228  and  _229
REMARK   94  A    between atoms: _228  and  _231
REMARK   95  A    between atoms: _231  and  _232
REMARK   96  A    between atoms: _232  and  _233
REMARK   97  A    between atoms: _235  and  _237
REMARK   98  A    between atoms: _237  and  _238
REMARK   99  A    between atoms: _237  and  _240
REMARK  100  A    between atoms: _240  and  _241
REMARK  101  A    between atoms: _241  and  _242
REMARK  102  A    between atoms: _245  and  _247
REMARK  103  A    between atoms: _247  and  _248
REMARK  104  A    between atoms: _247  and  _250
REMARK  105  A    between atoms: _250  and  _251
REMARK  106  A    between atoms: _257  and  _259
REMARK  107  A    between atoms: _259  and  _260
REMARK  108  A    between atoms: _259  and  _262
REMARK  109  A    between atoms: _262  and  _263
REMARK  110  A    between atoms: _266  and  _268
REMARK  111  A    between atoms: _268  and  _269
REMARK  112  A    between atoms: _271  and  _273
REMARK  113  A    between atoms: _273  and  _274
REMARK  114  A    between atoms: _273  and  _276
REMARK  115  A    between atoms: _276  and  _277
REMARK  116  A    between atoms: _277  and  _278
REMARK  117  A    between atoms: _281  and  _283
REMARK  118  A    between atoms: _283  and  _284
REMARK  119  A    between atoms: _283  and  _286
REMARK  120  A    between atoms: _286  and  _287
REMARK  121  A    between atoms: _287  and  _288
REMARK  122  A    between atoms: _291  and  _293
REMARK  123  A    between atoms: _293  and  _294
REMARK  124  A    between atoms: _293  and  _296
REMARK  125  A    between atoms: _296  and  _297
REMARK  126  A    between atoms: _301  and  _302
REMARK  127  A    between atoms: _307  and  _309
REMARK  128  A    between atoms: _309  and  _310
REMARK  129  A    between atoms: _314  and  _315
REMARK  130  A    between atoms: _320  and  _322
REMARK  131  A    between atoms: _322  and  _323
REMARK  132  A    between atoms: _322  and  _325
REMARK  133  A    between atoms: _325  and  _326
REMARK  134  A    between atoms: _329  and  _331
REMARK  135  A    between atoms: _331  and  _332
REMARK  136  A    between atoms: _331  and  _334
REMARK  137  A    between atoms: _334  and  _335
REMARK  138  A    between atoms: _338  and  _340
REMARK  139  A    between atoms: _340  and  _341
REMARK  140  A    between atoms: _340  and  _343
REMARK  141  A    between atoms: _346  and  _348
REMARK  142  A    between atoms: _348  and  _349
REMARK  143  A    between atoms: _348  and  _351
REMARK  144  A    between atoms: _351  and  _352
REMARK  145  A    between atoms: _352  and  _353
REMARK  146  A    between atoms: _356  and  _358
REMARK  147  A    between atoms: _358  and  _359
REMARK  148  A    between atoms: _358  and  _361
REMARK  149  A    between atoms: _361  and  _362
REMARK  150  A    between atoms: _362  and  _363
REMARK  151  A    between atoms: _366  and  _368
REMARK  152  A    between atoms: _368  and  _369
REMARK  153  A    between atoms: _368  and  _371
REMARK  154  A    between atoms: _371  and  _372
REMARK  155  A    between atoms: _377  and  _378
REMARK  156  A    between atoms: _380  and  _382
REMARK  157  A    between atoms: _382  and  _383
REMARK  158  A    between atoms: _382  and  _385
REMARK  159  A    between atoms: _385  and  _386
REMARK  160  A    between atoms: _391  and  _393
REMARK  161  A    between atoms: _393  and  _394
REMARK  162  A    between atoms: _393  and  _396
REMARK  163  A    between atoms: _396  and  _397
REMARK  164  A    between atoms: _400  and  _402
REMARK  165  A    between atoms: _402  and  _403
REMARK  166  A    between atoms: _402  and  _405
REMARK  167  A    between atoms: _405  and  _406
REMARK  168  A    between atoms: _406  and  _407
REMARK  169  A    between atoms: _409  and  _411
REMARK  170  A    between atoms: _411  and  _412
REMARK  171  A    between atoms: _411  and  _414
REMARK  172  A    between atoms: _414  and  _415
REMARK  173  A    between atoms: _420  and  _421
REMARK  174  A    between atoms: _423  and  _425
REMARK  175  A    between atoms: _425  and  _426
REMARK  176  A    between atoms: _425  and  _428
REMARK  177  A    between atoms: _428  and  _429
REMARK  178  A    between atoms: _435  and  _437
REMARK  179  A    between atoms: _437  and  _438
REMARK  180  A    between atoms: _437  and  _440
REMARK  181  A    between atoms: _440  and  _441
REMARK  182  A    between atoms: _444  and  _446
REMARK  183  A    between atoms: _446  and  _447
REMARK  184  A    between atoms: _446  and  _449
REMARK  185  A    between atoms: _449  and  _450
REMARK  186  A    between atoms: _453  and  _455
REMARK  187  A    between atoms: _455  and  _456
REMARK  188  A    between atoms: _455  and  _458
REMARK  189  A    between atoms: _458  and  _459
REMARK  190  A    between atoms: _459  and  _460
REMARK  191  A    between atoms: _462  and  _464
REMARK  192  A    between atoms: _464  and  _465
REMARK                            x       y       z     vdW  Elec       q    Type
REMARK                         _______ _______ _______ _____ _____    ______ ____
ROOT
ATOM      1  O   HOH     1      11.892  -1.387  22.317  0.00  0.00    +0.000 OA
ENDROOT
TORSDOF 0
REMARK  Name = ../refined-set-2016/3re4/3re4_pocket.pdb
REMARK  192 active torsions:
REMARK  status: ('A' for Active; 'I' for Inactive)
REMARK    1  A    between atoms: _1  and  _3
REMARK    2  A    between atoms: _3  and  _4
REMARK    3  A    between atoms: _3  and  _6
REMARK    4  A    between atoms: _9  and  _11
REMARK    5  A    between atoms: _11  and  _12
REMARK    6  A    between atoms: _11  and  _14
REMARK    7  A    between atoms: _14  and  _15
REMARK    8  A    between atoms: _18  and  _20
REMARK    9  A    between atoms: _20  and  _21
REMARK   10  A    between atoms: _20  and  _23
REMARK   11  A    between atoms: _23  and  _24
REMARK   12  A    between atoms: _26  and  _28
REMARK   13  A    between atoms: _28  and  _29
REMARK   14  A    between atoms: _28  and  _31
REMARK   15  A    between atoms: _31  and  _32
REMARK   16  A    between atoms: _35  and  _37
REMARK   17  A    between atoms: _37  and  _38
REMARK   18  A    between atoms: _40  and  _42
REMARK   19  A    between atoms: _42  and  _43
REMARK   20  A    between atoms: _46  and  _48
REMARK   21  A    between atoms: _48  and  _49
REMARK   22  A    between atoms: _48  and  _51
REMARK   23  A    between atoms: _51  and  _52
REMARK   24  A    between atoms: _57  and  _59
REMARK   25  A    between atoms: _59  and  _60
REMARK   26  A    between atoms: _59  and  _62
REMARK   27  A    between atoms: _65  and  _67
REMARK   28  A    between atoms: _67  and  _68
REMARK   29  A    between atoms: _67  and  _70
REMARK   30  A    between atoms: _70  and  _71
REMARK   31  A    between atoms: _77  and  _79
REMARK   32  A    between atoms: _79  and  _80
REMARK   33  A    between atoms: _79  and  _82
REMARK   34  A    between atoms: _82  and  _83
REMARK   35  A    between atoms: _88  and  _89
REMARK   36  A    between atoms: _91  and  _93
REMARK   37  A    between atoms: _93  and  _94
REMARK   38  A    between atoms: _97  and  _99
REMARK   39  A    between atoms: _99  and  _100
REMARK   40  A    between atoms: _103  and  _105
REMARK   41  A    between atoms: _105  and  _106
REMARK   42  A    between atoms: _105  and  _108
REMARK   43  A    between atoms: _108  and  _109
REMARK   44  A    between atoms: _109  and  _110
REMARK   45  A    between atoms: _112  and  _114
REMARK   46  A    between atoms: _114  and  _115
REMARK   47  A    between atoms: _118  and  _120
REMARK   48  A    between atoms: _120  and  _121
REMARK   49  A    between atoms: _120  and  _123
REMARK   50  A    between atoms: _126  and  _128
REMARK   51  A    between atoms: _128  and  _129
REMARK   52  A    between atoms: _128  and  _131
REMARK   53  A    between atoms: _131  and  _132
REMARK   54  A    between atoms: _132  and  _133
REMARK   55  A    between atoms: _133  and  _134
REMARK   56  A    between atoms: _134  and  _135
REMARK   57  A    between atoms: _139  and  _141
REMARK   58  A    between atoms: _141  and  _142
REMARK   59  A    between atoms: _141  and  _144
REMARK   60  A    between atoms: _144  and  _145
REMARK   61  A    between atoms: _148  and  _150
REMARK   62  A    between atoms: _150  and  _151
REMARK   63  A    between atoms: _150  and  _153
REMARK   64  A    between atoms: _153  and  _154
REMARK   65  A    between atoms: _159  and  _160
REMARK   66  A    between atoms: _162  and  _164
REMARK   67  A    between atoms: _164  and  _165
REMARK   68  A    between atoms: _164  and  _167
REMARK   69  A    between atoms: _167  and  _168
REMARK   70  A    between atoms: _168  and  _169
REMARK   71  A    between atoms: _172  and  _174
REMARK   72  A    between atoms: _174  and  _175
REMARK   73  A    between atoms: _174  and  _177
REMARK   74  A    between atoms: _177  and  _178
REMARK   75  A    between atoms: _181  and  _183
REMARK   76  A    between atoms: _183  and  _184
REMARK   77  A    between atoms: _183  and  _186
REMARK   78  A    between atoms: _190  and  _191
REMARK   79  A    between atoms: _196  and  _198
REMARK   80  A    between atoms: _198  and  _199
REMARK   81  A    between atoms: _198  and  _201
REMARK   82  A    between atoms: _201  and  _202
REMARK   83  A    between atoms: _202  and  _203
REMARK   84  A    between atoms: _208  and  _210
REMARK   85  A    between atoms: _210  and  _211
REMARK   86  A    between atoms: _210  and  _213
REMARK   87  A    between atoms: _213  and  _214
REMARK   88  A    between atoms: _217  and  _219
REMARK   89  A    between atoms: _219  and  _220
REMARK   90  A    between atoms: _219  and  _222
REMARK   91  A    between atoms: _222  and  _223
REMARK   92  A    between atoms: _226  and  _228
REMARK   93  A    between atoms: _228  and  _229
REMARK   94  A    between atoms: _228  and  _231
REMARK   95  A    between atoms: _231  and  _232
REMARK   96  A    between atoms: _232  and  _233
REMARK   97  A    between atoms: _235  and  _237
REMARK   98  A    between atoms: _237  and  _238
REMARK   99  A    between atoms: _237  and  _240
REMARK  100  A    between atoms: _240  and  _241
REMARK  101  A    between atoms: _241  and  _242
REMARK  102  A    between atoms: _245  and  _247
REMARK  103  A    between atoms: _247  and  _248
REMARK  104  A    between atoms: _247  and  _250
REMARK  105  A    between atoms: _250  and  _251
REMARK  106  A    between atoms: _257  and  _259
REMARK  107  A    between atoms: _259  and  _260
REMARK  108  A    between atoms: _259  and  _262
REMARK  109  A    between atoms: _262  and  _263
REMARK  110  A    between atoms: _266  and  _268
REMARK  111  A    between atoms: _268  and  _269
REMARK  112  A    between atoms: _271  and  _273
REMARK  113  A    between atoms: _273  and  _274
REMARK  114  A    between atoms: _273  and  _276
REMARK  115  A    between atoms: _276  and  _277
REMARK  116  A    between atoms: _277  and  _278
REMARK  117  A    between atoms: _281  and  _283
REMARK  118  A    between atoms: _283  and  _284
REMARK  119  A    between atoms: _283  and  _286
REMARK  120  A    between atoms: _286  and  _287
REMARK  121  A    between atoms: _287  and  _288
REMARK  122  A    between atoms: _291  and  _293
REMARK  123  A    between atoms: _293  and  _294
REMARK  124  A    between atoms: _293  and  _296
REMARK  125  A    between atoms: _296  and  _297
REMARK  126  A    between atoms: _301  and  _302
REMARK  127  A    between atoms: _307  and  _309
REMARK  128  A    between atoms: _309  and  _310
REMARK  129  A    between atoms: _314  and  _315
REMARK  130  A    between atoms: _320  and  _322
REMARK  131  A    between atoms: _322  and  _323
REMARK  132  A    between atoms: _322  and  _325
REMARK  133  A    between atoms: _325  and  _326
REMARK  134  A    between atoms: _329  and  _331
REMARK  135  A    between atoms: _331  and  _332
REMARK  136  A    between atoms: _331  and  _334
REMARK  137  A    between atoms: _334  and  _335
REMARK  138  A    between atoms: _338  and  _340
REMARK  139  A    between atoms: _340  and  _341
REMARK  140  A    between atoms: _340  and  _343
REMARK  141  A    between atoms: _346  and  _348
REMARK  142  A    between atoms: _348  and  _349
REMARK  143  A    between atoms: _348  and  _351
REMARK  144  A    between atoms: _351  and  _352
REMARK  145  A    between atoms: _352  and  _353
REMARK  146  A    between atoms: _356  and  _358
REMARK  147  A    between atoms: _358  and  _359
REMARK  148  A    between atoms: _358  and  _361
REMARK  149  A    between atoms: _361  and  _362
REMARK  150  A    between atoms: _362  and  _363
REMARK  151  A    between atoms: _366  and  _368
REMARK  152  A    between atoms: _368  and  _369
REMARK  153  A    between atoms: _368  and  _371
REMARK  154  A    between atoms: _371  and  _372
REMARK  155  A    between atoms: _377  and  _378
REMARK  156  A    between atoms: _380  and  _382
REMARK  157  A    between atoms: _382  and  _383
REMARK  158  A    between atoms: _382  and  _385
REMARK  159  A    between atoms: _385  and  _386
REMARK  160  A    between atoms: _391  and  _393
REMARK  161  A    between atoms: _393  and  _394
REMARK  162  A    between atoms: _393  and  _396
REMARK  163  A    between atoms: _396  and  _397
REMARK  164  A    between atoms: _400  and  _402
REMARK  165  A    between atoms: _402  and  _403
REMARK  166  A    between atoms: _402  and  _405
REMARK  167  A    between atoms: _405  and  _406
REMARK  168  A    between atoms: _406  and  _407
REMARK  169  A    between atoms: _409  and  _411
REMARK  170  A    between atoms: _411  and  _412
REMARK  171  A    between atoms: _411  and  _414
REMARK  172  A    between atoms: _414  and  _415
REMARK  173  A    between atoms: _420  and  _421
REMARK  174  A    between atoms: _423  and  _425
REMARK  175  A    between atoms: _425  and  _426
REMARK  176  A    between atoms: _425  and  _428
REMARK  177  A    between atoms: _428  and  _429
REMARK  178  A    between atoms: _435  and  _437
REMARK  179  A    between atoms: _437  and  _438
REMARK  180  A    between atoms: _437  and  _440
REMARK  181  A    between atoms: _440  and  _441
REMARK  182  A    between atoms: _444  and  _446
REMARK  183  A    between atoms: _446  and  _447
REMARK  184  A    between atoms: _446  and  _449
REMARK  185  A    between atoms: _449  and  _450
REMARK  186  A    between atoms: _453  and  _455
REMARK  187  A    between atoms: _455  and  _456
REMARK  188  A    between atoms: _455  and  _458
REMARK  189  A    between atoms: _458  and  _459
REMARK  190  A    between atoms: _459  and  _460
REMARK  191  A    between atoms: _462  and  _464
REMARK  192  A    between atoms: _464  and  _465
REMARK                            x       y       z     vdW  Elec       q    Type
REMARK                         _______ _______ _______ _____ _____    ______ ____
ROOT
ATOM      1  O   HOH     1      15.766  -5.580  27.653  0.00  0.00    +0.000 OA
ENDROOT
TORSDOF 0
REMARK  Name = ../refined-set-2016/3re4/3re4_pocket.pdb
REMARK  192 active torsions:
REMARK  status: ('A' for Active; 'I' for Inactive)
REMARK    1  A    between atoms: _1  and  _3
REMARK    2  A    between atoms: _3  and  _4
REMARK    3  A    between atoms: _3  and  _6
REMARK    4  A    between atoms: _9  and  _11
REMARK    5  A    between atoms: _11  and  _12
REMARK    6  A    between atoms: _11  and  _14
REMARK    7  A    between atoms: _14  and  _15
REMARK    8  A    between atoms: _18  and  _20
REMARK    9  A    between atoms: _20  and  _21
REMARK   10  A    between atoms: _20  and  _23
REMARK   11  A    between atoms: _23  and  _24
REMARK   12  A    between atoms: _26  and  _28
REMARK   13  A    between atoms: _28  and  _29
REMARK   14  A    between atoms: _28  and  _31
REMARK   15  A    between atoms: _31  and  _32
REMARK   16  A    between atoms: _35  and  _37
REMARK   17  A    between atoms: _37  and  _38
REMARK   18  A    between atoms: _40  and  _42
REMARK   19  A    between atoms: _42  and  _43
REMARK   20  A    between atoms: _46  and  _48
REMARK   21  A    between atoms: _48  and  _49
REMARK   22  A    between atoms: _48  and  _51
REMARK   23  A    between atoms: _51  and  _52
REMARK   24  A    between atoms: _57  and  _59
REMARK   25  A    between atoms: _59  and  _60
REMARK   26  A    between atoms: _59  and  _62
REMARK   27  A    between atoms: _65  and  _67
REMARK   28  A    between atoms: _67  and  _68
REMARK   29  A    between atoms: _67  and  _70
REMARK   30  A    between atoms: _70  and  _71
REMARK   31  A    between atoms: _77  and  _79
REMARK   32  A    between atoms: _79  and  _80
REMARK   33  A    between atoms: _79  and  _82
REMARK   34  A    between atoms: _82  and  _83
REMARK   35  A    between atoms: _88  and  _89
REMARK   36  A    between atoms: _91  and  _93
REMARK   37  A    between atoms: _93  and  _94
REMARK   38  A    between atoms: _97  and  _99
REMARK   39  A    between atoms: _99  and  _100
REMARK   40  A    between atoms: _103  and  _105
REMARK   41  A    between atoms: _105  and  _106
REMARK   42  A    between atoms: _105  and  _108
REMARK   43  A    between atoms: _108  and  _109
REMARK   44  A    between atoms: _109  and  _110
REMARK   45  A    between atoms: _112  and  _114
REMARK   46  A    between atoms: _114  and  _115
REMARK   47  A    between atoms: _118  and  _120
REMARK   48  A    between atoms: _120  and  _121
REMARK   49  A    between atoms: _120  and  _123
REMARK   50  A    between atoms: _126  and  _128
REMARK   51  A    between atoms: _128  and  _129
REMARK   52  A    between atoms: _128  and  _131
REMARK   53  A    between atoms: _131  and  _132
REMARK   54  A    between atoms: _132  and  _133
REMARK   55  A    between atoms: _133  and  _134
REMARK   56  A    between atoms: _134  and  _135
REMARK   57  A    between atoms: _139  and  _141
REMARK   58  A    between atoms: _141  and  _142
REMARK   59  A    between atoms: _141  and  _144
REMARK   60  A    between atoms: _144  and  _145
REMARK   61  A    between atoms: _148  and  _150
REMARK   62  A    between atoms: _150  and  _151
REMARK   63  A    between atoms: _150  and  _153
REMARK   64  A    between atoms: _153  and  _154
REMARK   65  A    between atoms: _159  and  _160
REMARK   66  A    between atoms: _162  and  _164
REMARK   67  A    between atoms: _164  and  _165
REMARK   68  A    between atoms: _164  and  _167
REMARK   69  A    between atoms: _167  and  _168
REMARK   70  A    between atoms: _168  and  _169
REMARK   71  A    between atoms: _172  and  _174
REMARK   72  A    between atoms: _174  and  _175
REMARK   73  A    between atoms: _174  and  _177
REMARK   74  A    between atoms: _177  and  _178
REMARK   75  A    between atoms: _181  and  _183
REMARK   76  A    between atoms: _183  and  _184
REMARK   77  A    between atoms: _183  and  _186
REMARK   78  A    between atoms: _190  and  _191
REMARK   79  A    between atoms: _196  and  _198
REMARK   80  A    between atoms: _198  and  _199
REMARK   81  A    between atoms: _198  and  _201
REMARK   82  A    between atoms: _201  and  _202
REMARK   83  A    between atoms: _202  and  _203
REMARK   84  A    between atoms: _208  and  _210
REMARK   85  A    between atoms: _210  and  _211
REMARK   86  A    between atoms: _210  and  _213
REMARK   87  A    between atoms: _213  and  _214
REMARK   88  A    between atoms: _217  and  _219
REMARK   89  A    between atoms: _219  and  _220
REMARK   90  A    between atoms: _219  and  _222
REMARK   91  A    between atoms: _222  and  _223
REMARK   92  A    between atoms: _226  and  _228
REMARK   93  A    between atoms: _228  and  _229
REMARK   94  A    between atoms: _228  and  _231
REMARK   95  A    between atoms: _231  and  _232
REMARK   96  A    between atoms: _232  and  _233
REMARK   97  A    between atoms: _235  and  _237
REMARK   98  A    between atoms: _237  and  _238
REMARK   99  A    between atoms: _237  and  _240
REMARK  100  A    between atoms: _240  and  _241
REMARK  101  A    between atoms: _241  and  _242
REMARK  102  A    between atoms: _245  and  _247
REMARK  103  A    between atoms: _247  and  _248
REMARK  104  A    between atoms: _247  and  _250
REMARK  105  A    between atoms: _250  and  _251
REMARK  106  A    between atoms: _257  and  _259
REMARK  107  A    between atoms: _259  and  _260
REMARK  108  A    between atoms: _259  and  _262
REMARK  109  A    between atoms: _262  and  _263
REMARK  110  A    between atoms: _266  and  _268
REMARK  111  A    between atoms: _268  and  _269
REMARK  112  A    between atoms: _271  and  _273
REMARK  113  A    between atoms: _273  and  _274
REMARK  114  A    between atoms: _273  and  _276
REMARK  115  A    between atoms: _276  and  _277
REMARK  116  A    between atoms: _277  and  _278
REMARK  117  A    between atoms: _281  and  _283
REMARK  118  A    between atoms: _283  and  _284
REMARK  119  A    between atoms: _283  and  _286
REMARK  120  A    between atoms: _286  and  _287
REMARK  121  A    between atoms: _287  and  _288
REMARK  122  A    between atoms: _291  and  _293
REMARK  123  A    between atoms: _293  and  _294
REMARK  124  A    between atoms: _293  and  _296
REMARK  125  A    between atoms: _296  and  _297
REMARK  126  A    between atoms: _301  and  _302
REMARK  127  A    between atoms: _307  and  _309
REMARK  128  A    between atoms: _309  and  _310
REMARK  129  A    between atoms: _314  and  _315
REMARK  130  A    between atoms: _320  and  _322
REMARK  131  A    between atoms: _322  and  _323
REMARK  132  A    between atoms: _322  and  _325
REMARK  133  A    between atoms: _325  and  _326
REMARK  134  A    between atoms: _329  and  _331
REMARK  135  A    between atoms: _331  and  _332
REMARK  136  A    between atoms: _331  and  _334
REMARK  137  A    between atoms: _334  and  _335
REMARK  138  A    between atoms: _338  and  _340
REMARK  139  A    between atoms: _340  and  _341
REMARK  140  A    between atoms: _340  and  _343
REMARK  141  A    between atoms: _346  and  _348
REMARK  142  A    between atoms: _348  and  _349
REMARK  143  A    between atoms: _348  and  _351
REMARK  144  A    between atoms: _351  and  _352
REMARK  145  A    between atoms: _352  and  _353
REMARK  146  A    between atoms: _356  and  _358
REMARK  147  A    between atoms: _358  and  _359
REMARK  148  A    between atoms: _358  and  _361
REMARK  149  A    between atoms: _361  and  _362
REMARK  150  A    between atoms: _362  and  _363
REMARK  151  A    between atoms: _366  and  _368
REMARK  152  A    between atoms: _368  and  _369
REMARK  153  A    between atoms: _368  and  _371
REMARK  154  A    between atoms: _371  and  _372
REMARK  155  A    between atoms: _377  and  _378
REMARK  156  A    between atoms: _380  and  _382
REMARK  157  A    between atoms: _382  and  _383
REMARK  158  A    between atoms: _382  and  _385
REMARK  159  A    between atoms: _385  and  _386
REMARK  160  A    between atoms: _391  and  _393
REMARK  161  A    between atoms: _393  and  _394
REMARK  162  A    between atoms: _393  and  _396
REMARK  163  A    between atoms: _396  and  _397
REMARK  164  A    between atoms: _400  and  _402
REMARK  165  A    between atoms: _402  and  _403
REMARK  166  A    between atoms: _402  and  _405
REMARK  167  A    between atoms: _405  and  _406
REMARK  168  A    between atoms: _406  and  _407
REMARK  169  A    between atoms: _409  and  _411
REMARK  170  A    between atoms: _411  and  _412
REMARK  171  A    between atoms: _411  and  _414
REMARK  172  A    between atoms: _414  and  _415
REMARK  173  A    between atoms: _420  and  _421
REMARK  174  A    between atoms: _423  and  _425
REMARK  175  A    between atoms: _425  and  _426
REMARK  176  A    between atoms: _425  and  _428
REMARK  177  A    between atoms: _428  and  _429
REMARK  178  A    between atoms: _435  and  _437
REMARK  179  A    between atoms: _437  and  _438
REMARK  180  A    between atoms: _437  and  _440
REMARK  181  A    between atoms: _440  and  _441
REMARK  182  A    between atoms: _444  and  _446
REMARK  183  A    between atoms: _446  and  _447
REMARK  184  A    between atoms: _446  and  _449
REMARK  185  A    between atoms: _449  and  _450
REMARK  186  A    between atoms: _453  and  _455
REMARK  187  A    between atoms: _455  and  _456
REMARK  188  A    between atoms: _455  and  _458
REMARK  189  A    between atoms: _458  and  _459
REMARK  190  A    between atoms: _459  and  _460
REMARK  191  A    between atoms: _462  and  _464
REMARK  192  A    between atoms: _464  and  _465
REMARK                            x       y       z     vdW  Elec       q    Type
REMARK                         _______ _______ _______ _____ _____    ______ ____
ROOT
ATOM      1  O   HOH     1      14.524  -0.486  29.932  0.00  0.00    +0.000 OA
ENDROOT
TORSDOF 0
REMARK  Name = ../refined-set-2016/3re4/3re4_pocket.pdb
REMARK  192 active torsions:
REMARK  status: ('A' for Active; 'I' for Inactive)
REMARK    1  A    between atoms: _1  and  _3
REMARK    2  A    between atoms: _3  and  _4
REMARK    3  A    between atoms: _3  and  _6
REMARK    4  A    between atoms: _9  and  _11
REMARK    5  A    between atoms: _11  and  _12
REMARK    6  A    between atoms: _11  and  _14
REMARK    7  A    between atoms: _14  and  _15
REMARK    8  A    between atoms: _18  and  _20
REMARK    9  A    between atoms: _20  and  _21
REMARK   10  A    between atoms: _20  and  _23
REMARK   11  A    between atoms: _23  and  _24
REMARK   12  A    between atoms: _26  and  _28
REMARK   13  A    between atoms: _28  and  _29
REMARK   14  A    between atoms: _28  and  _31
REMARK   15  A    between atoms: _31  and  _32
REMARK   16  A    between atoms: _35  and  _37
REMARK   17  A    between atoms: _37  and  _38
REMARK   18  A    between atoms: _40  and  _42
REMARK   19  A    between atoms: _42  and  _43
REMARK   20  A    between atoms: _46  and  _48
REMARK   21  A    between atoms: _48  and  _49
REMARK   22  A    between atoms: _48  and  _51
REMARK   23  A    between atoms: _51  and  _52
REMARK   24  A    between atoms: _57  and  _59
REMARK   25  A    between atoms: _59  and  _60
REMARK   26  A    between atoms: _59  and  _62
REMARK   27  A    between atoms: _65  and  _67
REMARK   28  A    between atoms: _67  and  _68
REMARK   29  A    between atoms: _67  and  _70
REMARK   30  A    between atoms: _70  and  _71
REMARK   31  A    between atoms: _77  and  _79
REMARK   32  A    between atoms: _79  and  _80
REMARK   33  A    between atoms: _79  and  _82
REMARK   34  A    between atoms: _82  and  _83
REMARK   35  A    between atoms: _88  and  _89
REMARK   36  A    between atoms: _91  and  _93
REMARK   37  A    between atoms: _93  and  _94
REMARK   38  A    between atoms: _97  and  _99
REMARK   39  A    between atoms: _99  and  _100
REMARK   40  A    between atoms: _103  and  _105
REMARK   41  A    between atoms: _105  and  _106
REMARK   42  A    between atoms: _105  and  _108
REMARK   43  A    between atoms: _108  and  _109
REMARK   44  A    between atoms: _109  and  _110
REMARK   45  A    between atoms: _112  and  _114
REMARK   46  A    between atoms: _114  and  _115
REMARK   47  A    between atoms: _118  and  _120
REMARK   48  A    between atoms: _120  and  _121
REMARK   49  A    between atoms: _120  and  _123
REMARK   50  A    between atoms: _126  and  _128
REMARK   51  A    between atoms: _128  and  _129
REMARK   52  A    between atoms: _128  and  _131
REMARK   53  A    between atoms: _131  and  _132
REMARK   54  A    between atoms: _132  and  _133
REMARK   55  A    between atoms: _133  and  _134
REMARK   56  A    between atoms: _134  and  _135
REMARK   57  A    between atoms: _139  and  _141
REMARK   58  A    between atoms: _141  and  _142
REMARK   59  A    between atoms: _141  and  _144
REMARK   60  A    between atoms: _144  and  _145
REMARK   61  A    between atoms: _148  and  _150
REMARK   62  A    between atoms: _150  and  _151
REMARK   63  A    between atoms: _150  and  _153
REMARK   64  A    between atoms: _153  and  _154
REMARK   65  A    between atoms: _159  and  _160
REMARK   66  A    between atoms: _162  and  _164
REMARK   67  A    between atoms: _164  and  _165
REMARK   68  A    between atoms: _164  and  _167
REMARK   69  A    between atoms: _167  and  _168
REMARK   70  A    between atoms: _168  and  _169
REMARK   71  A    between atoms: _172  and  _174
REMARK   72  A    between atoms: _174  and  _175
REMARK   73  A    between atoms: _174  and  _177
REMARK   74  A    between atoms: _177  and  _178
REMARK   75  A    between atoms: _181  and  _183
REMARK   76  A    between atoms: _183  and  _184
REMARK   77  A    between atoms: _183  and  _186
REMARK   78  A    between atoms: _190  and  _191
REMARK   79  A    between atoms: _196  and  _198
REMARK   80  A    between atoms: _198  and  _199
REMARK   81  A    between atoms: _198  and  _201
REMARK   82  A    between atoms: _201  and  _202
REMARK   83  A    between atoms: _202  and  _203
REMARK   84  A    between atoms: _208  and  _210
REMARK   85  A    between atoms: _210  and  _211
REMARK   86  A    between atoms: _210  and  _213
REMARK   87  A    between atoms: _213  and  _214
REMARK   88  A    between atoms: _217  and  _219
REMARK   89  A    between atoms: _219  and  _220
REMARK   90  A    between atoms: _219  and  _222
REMARK   91  A    between atoms: _222  and  _223
REMARK   92  A    between atoms: _226  and  _228
REMARK   93  A    between atoms: _228  and  _229
REMARK   94  A    between atoms: _228  and  _231
REMARK   95  A    between atoms: _231  and  _232
REMARK   96  A    between atoms: _232  and  _233
REMARK   97  A    between atoms: _235  and  _237
REMARK   98  A    between atoms: _237  and  _238
REMARK   99  A    between atoms: _237  and  _240
REMARK  100  A    between atoms: _240  and  _241
REMARK  101  A    between atoms: _241  and  _242
REMARK  102  A    between atoms: _245  and  _247
REMARK  103  A    between atoms: _247  and  _248
REMARK  104  A    between atoms: _247  and  _250
REMARK  105  A    between atoms: _250  and  _251
REMARK  106  A    between atoms: _257  and  _259
REMARK  107  A    between atoms: _259  and  _260
REMARK  108  A    between atoms: _259  and  _262
REMARK  109  A    between atoms: _262  and  _263
REMARK  110  A    between atoms: _266  and  _268
REMARK  111  A    between atoms: _268  and  _269
REMARK  112  A    between atoms: _271  and  _273
REMARK  113  A    between atoms: _273  and  _274
REMARK  114  A    between atoms: _273  and  _276
REMARK  115  A    between atoms: _276  and  _277
REMARK  116  A    between atoms: _277  and  _278
REMARK  117  A    between atoms: _281  and  _283
REMARK  118  A    between atoms: _283  and  _284
REMARK  119  A    between atoms: _283  and  _286
REMARK  120  A    between atoms: _286  and  _287
REMARK  121  A    between atoms: _287  and  _288
REMARK  122  A    between atoms: _291  and  _293
REMARK  123  A    between atoms: _293  and  _294
REMARK  124  A    between atoms: _293  and  _296
REMARK  125  A    between atoms: _296  and  _297
REMARK  126  A    between atoms: _301  and  _302
REMARK  127  A    between atoms: _307  and  _309
REMARK  128  A    between atoms: _309  and  _310
REMARK  129  A    between atoms: _314  and  _315
REMARK  130  A    between atoms: _320  and  _322
REMARK  131  A    between atoms: _322  and  _323
REMARK  132  A    between atoms: _322  and  _325
REMARK  133  A    between atoms: _325  and  _326
REMARK  134  A    between atoms: _329  and  _331
REMARK  135  A    between atoms: _331  and  _332
REMARK  136  A    between atoms: _331  and  _334
REMARK  137  A    between atoms: _334  and  _335
REMARK  138  A    between atoms: _338  and  _340
REMARK  139  A    between atoms: _340  and  _341
REMARK  140  A    between atoms: _340  and  _343
REMARK  141  A    between atoms: _346  and  _348
REMARK  142  A    between atoms: _348  and  _349
REMARK  143  A    between atoms: _348  and  _351
REMARK  144  A    between atoms: _351  and  _352
REMARK  145  A    between atoms: _352  and  _353
REMARK  146  A    between atoms: _356  and  _358
REMARK  147  A    between atoms: _358  and  _359
REMARK  148  A    between atoms: _358  and  _361
REMARK  149  A    between atoms: _361  and  _362
REMARK  150  A    between atoms: _362  and  _363
REMARK  151  A    between atoms: _366  and  _368
REMARK  152  A    between atoms: _368  and  _369
REMARK  153  A    between atoms: _368  and  _371
REMARK  154  A    between atoms: _371  and  _372
REMARK  155  A    between atoms: _377  and  _378
REMARK  156  A    between atoms: _380  and  _382
REMARK  157  A    between atoms: _382  and  _383
REMARK  158  A    between atoms: _382  and  _385
REMARK  159  A    between atoms: _385  and  _386
REMARK  160  A    between atoms: _391  and  _393
REMARK  161  A    between atoms: _393  and  _394
REMARK  162  A    between atoms: _393  and  _396
REMARK  163  A    between atoms: _396  and  _397
REMARK  164  A    between atoms: _400  and  _402
REMARK  165  A    between atoms: _402  and  _403
REMARK  166  A    between atoms: _402  and  _405
REMARK  167  A    between atoms: _405  and  _406
REMARK  168  A    between atoms: _406  and  _407
REMARK  169  A    between atoms: _409  and  _411
REMARK  170  A    between atoms: _411  and  _412
REMARK  171  A    between atoms: _411  and  _414
REMARK  172  A    between atoms: _414  and  _415
REMARK  173  A    between atoms: _420  and  _421
REMARK  174  A    between atoms: _423  and  _425
REMARK  175  A    between atoms: _425  and  _426
REMARK  176  A    between atoms: _425  and  _428
REMARK  177  A    between atoms: _428  and  _429
REMARK  178  A    between atoms: _435  and  _437
REMARK  179  A    between atoms: _437  and  _438
REMARK  180  A    between atoms: _437  and  _440
REMARK  181  A    between atoms: _440  and  _441
REMARK  182  A    between atoms: _444  and  _446
REMARK  183  A    between atoms: _446  and  _447
REMARK  184  A    between atoms: _446  and  _449
REMARK  185  A    between atoms: _449  and  _450
REMARK  186  A    between atoms: _453  and  _455
REMARK  187  A    between atoms: _455  and  _456
REMARK  188  A    between atoms: _455  and  _458
REMARK  189  A    between atoms: _458  and  _459
REMARK  190  A    between atoms: _459  and  _460
REMARK  191  A    between atoms: _462  and  _464
REMARK  192  A    between atoms: _464  and  _465
REMARK                            x       y       z     vdW  Elec       q    Type
REMARK                         _______ _______ _______ _____ _____    ______ ____
ROOT
ATOM      1  O   HOH     1      10.295   0.365  19.633  0.00  0.00    +0.000 OA
ENDROOT
TORSDOF 0
REMARK  Name = ../refined-set-2016/3re4/3re4_pocket.pdb
REMARK  192 active torsions:
REMARK  status: ('A' for Active; 'I' for Inactive)
REMARK    1  A    between atoms: _1  and  _3
REMARK    2  A    between atoms: _3  and  _4
REMARK    3  A    between atoms: _3  and  _6
REMARK    4  A    between atoms: _9  and  _11
REMARK    5  A    between atoms: _11  and  _12
REMARK    6  A    between atoms: _11  and  _14
REMARK    7  A    between atoms: _14  and  _15
REMARK    8  A    between atoms: _18  and  _20
REMARK    9  A    between atoms: _20  and  _21
REMARK   10  A    between atoms: _20  and  _23
REMARK   11  A    between atoms: _23  and  _24
REMARK   12  A    between atoms: _26  and  _28
REMARK   13  A    between atoms: _28  and  _29
REMARK   14  A    between atoms: _28  and  _31
REMARK   15  A    between atoms: _31  and  _32
REMARK   16  A    between atoms: _35  and  _37
REMARK   17  A    between atoms: _37  and  _38
REMARK   18  A    between atoms: _40  and  _42
REMARK   19  A    between atoms: _42  and  _43
REMARK   20  A    between atoms: _46  and  _48
REMARK   21  A    between atoms: _48  and  _49
REMARK   22  A    between atoms: _48  and  _51
REMARK   23  A    between atoms: _51  and  _52
REMARK   24  A    between atoms: _57  and  _59
REMARK   25  A    between atoms: _59  and  _60
REMARK   26  A    between atoms: _59  and  _62
REMARK   27  A    between atoms: _65  and  _67
REMARK   28  A    between atoms: _67  and  _68
REMARK   29  A    between atoms: _67  and  _70
REMARK   30  A    between atoms: _70  and  _71
REMARK   31  A    between atoms: _77  and  _79
REMARK   32  A    between atoms: _79  and  _80
REMARK   33  A    between atoms: _79  and  _82
REMARK   34  A    between atoms: _82  and  _83
REMARK   35  A    between atoms: _88  and  _89
REMARK   36  A    between atoms: _91  and  _93
REMARK   37  A    between atoms: _93  and  _94
REMARK   38  A    between atoms: _97  and  _99
REMARK   39  A    between atoms: _99  and  _100
REMARK   40  A    between atoms: _103  and  _105
REMARK   41  A    between atoms: _105  and  _106
REMARK   42  A    between atoms: _105  and  _108
REMARK   43  A    between atoms: _108  and  _109
REMARK   44  A    between atoms: _109  and  _110
REMARK   45  A    between atoms: _112  and  _114
REMARK   46  A    between atoms: _114  and  _115
REMARK   47  A    between atoms: _118  and  _120
REMARK   48  A    between atoms: _120  and  _121
REMARK   49  A    between atoms: _120  and  _123
REMARK   50  A    between atoms: _126  and  _128
REMARK   51  A    between atoms: _128  and  _129
REMARK   52  A    between atoms: _128  and  _131
REMARK   53  A    between atoms: _131  and  _132
REMARK   54  A    between atoms: _132  and  _133
REMARK   55  A    between atoms: _133  and  _134
REMARK   56  A    between atoms: _134  and  _135
REMARK   57  A    between atoms: _139  and  _141
REMARK   58  A    between atoms: _141  and  _142
REMARK   59  A    between atoms: _141  and  _144
REMARK   60  A    between atoms: _144  and  _145
REMARK   61  A    between atoms: _148  and  _150
REMARK   62  A    between atoms: _150  and  _151
REMARK   63  A    between atoms: _150  and  _153
REMARK   64  A    between atoms: _153  and  _154
REMARK   65  A    between atoms: _159  and  _160
REMARK   66  A    between atoms: _162  and  _164
REMARK   67  A    between atoms: _164  and  _165
REMARK   68  A    between atoms: _164  and  _167
REMARK   69  A    between atoms: _167  and  _168
REMARK   70  A    between atoms: _168  and  _169
REMARK   71  A    between atoms: _172  and  _174
REMARK   72  A    between atoms: _174  and  _175
REMARK   73  A    between atoms: _174  and  _177
REMARK   74  A    between atoms: _177  and  _178
REMARK   75  A    between atoms: _181  and  _183
REMARK   76  A    between atoms: _183  and  _184
REMARK   77  A    between atoms: _183  and  _186
REMARK   78  A    between atoms: _190  and  _191
REMARK   79  A    between atoms: _196  and  _198
REMARK   80  A    between atoms: _198  and  _199
REMARK   81  A    between atoms: _198  and  _201
REMARK   82  A    between atoms: _201  and  _202
REMARK   83  A    between atoms: _202  and  _203
REMARK   84  A    between atoms: _208  and  _210
REMARK   85  A    between atoms: _210  and  _211
REMARK   86  A    between atoms: _210  and  _213
REMARK   87  A    between atoms: _213  and  _214
REMARK   88  A    between atoms: _217  and  _219
REMARK   89  A    between atoms: _219  and  _220
REMARK   90  A    between atoms: _219  and  _222
REMARK   91  A    between atoms: _222  and  _223
REMARK   92  A    between atoms: _226  and  _228
REMARK   93  A    between atoms: _228  and  _229
REMARK   94  A    between atoms: _228  and  _231
REMARK   95  A    between atoms: _231  and  _232
REMARK   96  A    between atoms: _232  and  _233
REMARK   97  A    between atoms: _235  and  _237
REMARK   98  A    between atoms: _237  and  _238
REMARK   99  A    between atoms: _237  and  _240
REMARK  100  A    between atoms: _240  and  _241
REMARK  101  A    between atoms: _241  and  _242
REMARK  102  A    between atoms: _245  and  _247
REMARK  103  A    between atoms: _247  and  _248
REMARK  104  A    between atoms: _247  and  _250
REMARK  105  A    between atoms: _250  and  _251
REMARK  106  A    between atoms: _257  and  _259
REMARK  107  A    between atoms: _259  and  _260
REMARK  108  A    between atoms: _259  and  _262
REMARK  109  A    between atoms: _262  and  _263
REMARK  110  A    between atoms: _266  and  _268
REMARK  111  A    between atoms: _268  and  _269
REMARK  112  A    between atoms: _271  and  _273
REMARK  113  A    between atoms: _273  and  _274
REMARK  114  A    between atoms: _273  and  _276
REMARK  115  A    between atoms: _276  and  _277
REMARK  116  A    between atoms: _277  and  _278
REMARK  117  A    between atoms: _281  and  _283
REMARK  118  A    between atoms: _283  and  _284
REMARK  119  A    between atoms: _283  and  _286
REMARK  120  A    between atoms: _286  and  _287
REMARK  121  A    between atoms: _287  and  _288
REMARK  122  A    between atoms: _291  and  _293
REMARK  123  A    between atoms: _293  and  _294
REMARK  124  A    between atoms: _293  and  _296
REMARK  125  A    between atoms: _296  and  _297
REMARK  126  A    between atoms: _301  and  _302
REMARK  127  A    between atoms: _307  and  _309
REMARK  128  A    between atoms: _309  and  _310
REMARK  129  A    between atoms: _314  and  _315
REMARK  130  A    between atoms: _320  and  _322
REMARK  131  A    between atoms: _322  and  _323
REMARK  132  A    between atoms: _322  and  _325
REMARK  133  A    between atoms: _325  and  _326
REMARK  134  A    between atoms: _329  and  _331
REMARK  135  A    between atoms: _331  and  _332
REMARK  136  A    between atoms: _331  and  _334
REMARK  137  A    between atoms: _334  and  _335
REMARK  138  A    between atoms: _338  and  _340
REMARK  139  A    between atoms: _340  and  _341
REMARK  140  A    between atoms: _340  and  _343
REMARK  141  A    between atoms: _346  and  _348
REMARK  142  A    between atoms: _348  and  _349
REMARK  143  A    between atoms: _348  and  _351
REMARK  144  A    between atoms: _351  and  _352
REMARK  145  A    between atoms: _352  and  _353
REMARK  146  A    between atoms: _356  and  _358
REMARK  147  A    between atoms: _358  and  _359
REMARK  148  A    between atoms: _358  and  _361
REMARK  149  A    between atoms: _361  and  _362
REMARK  150  A    between atoms: _362  and  _363
REMARK  151  A    between atoms: _366  and  _368
REMARK  152  A    between atoms: _368  and  _369
REMARK  153  A    between atoms: _368  and  _371
REMARK  154  A    between atoms: _371  and  _372
REMARK  155  A    between atoms: _377  and  _378
REMARK  156  A    between atoms: _380  and  _382
REMARK  157  A    between atoms: _382  and  _383
REMARK  158  A    between atoms: _382  and  _385
REMARK  159  A    between atoms: _385  and  _386
REMARK  160  A    between atoms: _391  and  _393
REMARK  161  A    between atoms: _393  and  _394
REMARK  162  A    between atoms: _393  and  _396
REMARK  163  A    between atoms: _396  and  _397
REMARK  164  A    between atoms: _400  and  _402
REMARK  165  A    between atoms: _402  and  _403
REMARK  166  A    between atoms: _402  and  _405
REMARK  167  A    between atoms: _405  and  _406
REMARK  168  A    between atoms: _406  and  _407
REMARK  169  A    between atoms: _409  and  _411
REMARK  170  A    between atoms: _411  and  _412
REMARK  171  A    between atoms: _411  and  _414
REMARK  172  A    between atoms: _414  and  _415
REMARK  173  A    between atoms: _420  and  _421
REMARK  174  A    between atoms: _423  and  _425
REMARK  175  A    between atoms: _425  and  _426
REMARK  176  A    between atoms: _425  and  _428
REMARK  177  A    between atoms: _428  and  _429
REMARK  178  A    between atoms: _435  and  _437
REMARK  179  A    between atoms: _437  and  _438
REMARK  180  A    between atoms: _437  and  _440
REMARK  181  A    between atoms: _440  and  _441
REMARK  182  A    between atoms: _444  and  _446
REMARK  183  A    between atoms: _446  and  _447
REMARK  184  A    between atoms: _446  and  _449
REMARK  185  A    between atoms: _449  and  _450
REMARK  186  A    between atoms: _453  and  _455
REMARK  187  A    between atoms: _455  and  _456
REMARK  188  A    between atoms: _455  and  _458
REMARK  189  A    between atoms: _458  and  _459
REMARK  190  A    between atoms: _459  and  _460
REMARK  191  A    between atoms: _462  and  _464
REMARK  192  A    between atoms: _464  and  _465
REMARK                            x       y       z     vdW  Elec       q    Type
REMARK                         _______ _______ _______ _____ _____    ______ ____
ROOT
ATOM      1  O   HOH     1      14.199  -3.813  22.487  0.00  0.00    +0.000 OA
ENDROOT
TORSDOF 0
REMARK  Name = ../refined-set-2016/3re4/3re4_pocket.pdb
REMARK  192 active torsions:
REMARK  status: ('A' for Active; 'I' for Inactive)
REMARK    1  A    between atoms: _1  and  _3
REMARK    2  A    between atoms: _3  and  _4
REMARK    3  A    between atoms: _3  and  _6
REMARK    4  A    between atoms: _9  and  _11
REMARK    5  A    between atoms: _11  and  _12
REMARK    6  A    between atoms: _11  and  _14
REMARK    7  A    between atoms: _14  and  _15
REMARK    8  A    between atoms: _18  and  _20
REMARK    9  A    between atoms: _20  and  _21
REMARK   10  A    between atoms: _20  and  _23
REMARK   11  A    between atoms: _23  and  _24
REMARK   12  A    between atoms: _26  and  _28
REMARK   13  A    between atoms: _28  and  _29
REMARK   14  A    between atoms: _28  and  _31
REMARK   15  A    between atoms: _31  and  _32
REMARK   16  A    between atoms: _35  and  _37
REMARK   17  A    between atoms: _37  and  _38
REMARK   18  A    between atoms: _40  and  _42
REMARK   19  A    between atoms: _42  and  _43
REMARK   20  A    between atoms: _46  and  _48
REMARK   21  A    between atoms: _48  and  _49
REMARK   22  A    between atoms: _48  and  _51
REMARK   23  A    between atoms: _51  and  _52
REMARK   24  A    between atoms: _57  and  _59
REMARK   25  A    between atoms: _59  and  _60
REMARK   26  A    between atoms: _59  and  _62
REMARK   27  A    between atoms: _65  and  _67
REMARK   28  A    between atoms: _67  and  _68
REMARK   29  A    between atoms: _67  and  _70
REMARK   30  A    between atoms: _70  and  _71
REMARK   31  A    between atoms: _77  and  _79
REMARK   32  A    between atoms: _79  and  _80
REMARK   33  A    between atoms: _79  and  _82
REMARK   34  A    between atoms: _82  and  _83
REMARK   35  A    between atoms: _88  and  _89
REMARK   36  A    between atoms: _91  and  _93
REMARK   37  A    between atoms: _93  and  _94
REMARK   38  A    between atoms: _97  and  _99
REMARK   39  A    between atoms: _99  and  _100
REMARK   40  A    between atoms: _103  and  _105
REMARK   41  A    between atoms: _105  and  _106
REMARK   42  A    between atoms: _105  and  _108
REMARK   43  A    between atoms: _108  and  _109
REMARK   44  A    between atoms: _109  and  _110
REMARK   45  A    between atoms: _112  and  _114
REMARK   46  A    between atoms: _114  and  _115
REMARK   47  A    between atoms: _118  and  _120
REMARK   48  A    between atoms: _120  and  _121
REMARK   49  A    between atoms: _120  and  _123
REMARK   50  A    between atoms: _126  and  _128
REMARK   51  A    between atoms: _128  and  _129
REMARK   52  A    between atoms: _128  and  _131
REMARK   53  A    between atoms: _131  and  _132
REMARK   54  A    between atoms: _132  and  _133
REMARK   55  A    between atoms: _133  and  _134
REMARK   56  A    between atoms: _134  and  _135
REMARK   57  A    between atoms: _139  and  _141
REMARK   58  A    between atoms: _141  and  _142
REMARK   59  A    between atoms: _141  and  _144
REMARK   60  A    between atoms: _144  and  _145
REMARK   61  A    between atoms: _148  and  _150
REMARK   62  A    between atoms: _150  and  _151
REMARK   63  A    between atoms: _150  and  _153
REMARK   64  A    between atoms: _153  and  _154
REMARK   65  A    between atoms: _159  and  _160
REMARK   66  A    between atoms: _162  and  _164
REMARK   67  A    between atoms: _164  and  _165
REMARK   68  A    between atoms: _164  and  _167
REMARK   69  A    between atoms: _167  and  _168
REMARK   70  A    between atoms: _168  and  _169
REMARK   71  A    between atoms: _172  and  _174
REMARK   72  A    between atoms: _174  and  _175
REMARK   73  A    between atoms: _174  and  _177
REMARK   74  A    between atoms: _177  and  _178
REMARK   75  A    between atoms: _181  and  _183
REMARK   76  A    between atoms: _183  and  _184
REMARK   77  A    between atoms: _183  and  _186
REMARK   78  A    between atoms: _190  and  _191
REMARK   79  A    between atoms: _196  and  _198
REMARK   80  A    between atoms: _198  and  _199
REMARK   81  A    between atoms: _198  and  _201
REMARK   82  A    between atoms: _201  and  _202
REMARK   83  A    between atoms: _202  and  _203
REMARK   84  A    between atoms: _208  and  _210
REMARK   85  A    between atoms: _210  and  _211
REMARK   86  A    between atoms: _210  and  _213
REMARK   87  A    between atoms: _213  and  _214
REMARK   88  A    between atoms: _217  and  _219
REMARK   89  A    between atoms: _219  and  _220
REMARK   90  A    between atoms: _219  and  _222
REMARK   91  A    between atoms: _222  and  _223
REMARK   92  A    between atoms: _226  and  _228
REMARK   93  A    between atoms: _228  and  _229
REMARK   94  A    between atoms: _228  and  _231
REMARK   95  A    between atoms: _231  and  _232
REMARK   96  A    between atoms: _232  and  _233
REMARK   97  A    between atoms: _235  and  _237
REMARK   98  A    between atoms: _237  and  _238
REMARK   99  A    between atoms: _237  and  _240
REMARK  100  A    between atoms: _240  and  _241
REMARK  101  A    between atoms: _241  and  _242
REMARK  102  A    between atoms: _245  and  _247
REMARK  103  A    between atoms: _247  and  _248
REMARK  104  A    between atoms: _247  and  _250
REMARK  105  A    between atoms: _250  and  _251
REMARK  106  A    between atoms: _257  and  _259
REMARK  107  A    between atoms: _259  and  _260
REMARK  108  A    between atoms: _259  and  _262
REMARK  109  A    between atoms: _262  and  _263
REMARK  110  A    between atoms: _266  and  _268
REMARK  111  A    between atoms: _268  and  _269
REMARK  112  A    between atoms: _271  and  _273
REMARK  113  A    between atoms: _273  and  _274
REMARK  114  A    between atoms: _273  and  _276
REMARK  115  A    between atoms: _276  and  _277
REMARK  116  A    between atoms: _277  and  _278
REMARK  117  A    between atoms: _281  and  _283
REMARK  118  A    between atoms: _283  and  _284
REMARK  119  A    between atoms: _283  and  _286
REMARK  120  A    between atoms: _286  and  _287
REMARK  121  A    between atoms: _287  and  _288
REMARK  122  A    between atoms: _291  and  _293
REMARK  123  A    between atoms: _293  and  _294
REMARK  124  A    between atoms: _293  and  _296
REMARK  125  A    between atoms: _296  and  _297
REMARK  126  A    between atoms: _301  and  _302
REMARK  127  A    between atoms: _307  and  _309
REMARK  128  A    between atoms: _309  and  _310
REMARK  129  A    between atoms: _314  and  _315
REMARK  130  A    between atoms: _320  and  _322
REMARK  131  A    between atoms: _322  and  _323
REMARK  132  A    between atoms: _322  and  _325
REMARK  133  A    between atoms: _325  and  _326
REMARK  134  A    between atoms: _329  and  _331
REMARK  135  A    between atoms: _331  and  _332
REMARK  136  A    between atoms: _331  and  _334
REMARK  137  A    between atoms: _334  and  _335
REMARK  138  A    between atoms: _338  and  _340
REMARK  139  A    between atoms: _340  and  _341
REMARK  140  A    between atoms: _340  and  _343
REMARK  141  A    between atoms: _346  and  _348
REMARK  142  A    between atoms: _348  and  _349
REMARK  143  A    between atoms: _348  and  _351
REMARK  144  A    between atoms: _351  and  _352
REMARK  145  A    between atoms: _352  and  _353
REMARK  146  A    between atoms: _356  and  _358
REMARK  147  A    between atoms: _358  and  _359
REMARK  148  A    between atoms: _358  and  _361
REMARK  149  A    between atoms: _361  and  _362
REMARK  150  A    between atoms: _362  and  _363
REMARK  151  A    between atoms: _366  and  _368
REMARK  152  A    between atoms: _368  and  _369
REMARK  153  A    between atoms: _368  and  _371
REMARK  154  A    between atoms: _371  and  _372
REMARK  155  A    between atoms: _377  and  _378
REMARK  156  A    between atoms: _380  and  _382
REMARK  157  A    between atoms: _382  and  _383
REMARK  158  A    between atoms: _382  and  _385
REMARK  159  A    between atoms: _385  and  _386
REMARK  160  A    between atoms: _391  and  _393
REMARK  161  A    between atoms: _393  and  _394
REMARK  162  A    between atoms: _393  and  _396
REMARK  163  A    between atoms: _396  and  _397
REMARK  164  A    between atoms: _400  and  _402
REMARK  165  A    between atoms: _402  and  _403
REMARK  166  A    between atoms: _402  and  _405
REMARK  167  A    between atoms: _405  and  _406
REMARK  168  A    between atoms: _406  and  _407
REMARK  169  A    between atoms: _409  and  _411
REMARK  170  A    between atoms: _411  and  _412
REMARK  171  A    between atoms: _411  and  _414
REMARK  172  A    between atoms: _414  and  _415
REMARK  173  A    between atoms: _420  and  _421
REMARK  174  A    between atoms: _423  and  _425
REMARK  175  A    between atoms: _425  and  _426
REMARK  176  A    between atoms: _425  and  _428
REMARK  177  A    between atoms: _428  and  _429
REMARK  178  A    between atoms: _435  and  _437
REMARK  179  A    between atoms: _437  and  _438
REMARK  180  A    between atoms: _437  and  _440
REMARK  181  A    between atoms: _440  and  _441
REMARK  182  A    between atoms: _444  and  _446
REMARK  183  A    between atoms: _446  and  _447
REMARK  184  A    between atoms: _446  and  _449
REMARK  185  A    between atoms: _449  and  _450
REMARK  186  A    between atoms: _453  and  _455
REMARK  187  A    between atoms: _455  and  _456
REMARK  188  A    between atoms: _455  and  _458
REMARK  189  A    between atoms: _458  and  _459
REMARK  190  A    between atoms: _459  and  _460
REMARK  191  A    between atoms: _462  and  _464
REMARK  192  A    between atoms: _464  and  _465
REMARK                            x       y       z     vdW  Elec       q    Type
REMARK                         _______ _______ _______ _____ _____    ______ ____
ROOT
ATOM      1  O   HOH     1       9.422   2.067  18.350  0.00  0.00    +0.000 OA
ENDROOT
TORSDOF 0
REMARK  Name = ../refined-set-2016/3re4/3re4_pocket.pdb
REMARK  192 active torsions:
REMARK  status: ('A' for Active; 'I' for Inactive)
REMARK    1  A    between atoms: _1  and  _3
REMARK    2  A    between atoms: _3  and  _4
REMARK    3  A    between atoms: _3  and  _6
REMARK    4  A    between atoms: _9  and  _11
REMARK    5  A    between atoms: _11  and  _12
REMARK    6  A    between atoms: _11  and  _14
REMARK    7  A    between atoms: _14  and  _15
REMARK    8  A    between atoms: _18  and  _20
REMARK    9  A    between atoms: _20  and  _21
REMARK   10  A    between atoms: _20  and  _23
REMARK   11  A    between atoms: _23  and  _24
REMARK   12  A    between atoms: _26  and  _28
REMARK   13  A    between atoms: _28  and  _29
REMARK   14  A    between atoms: _28  and  _31
REMARK   15  A    between atoms: _31  and  _32
REMARK   16  A    between atoms: _35  and  _37
REMARK   17  A    between atoms: _37  and  _38
REMARK   18  A    between atoms: _40  and  _42
REMARK   19  A    between atoms: _42  and  _43
REMARK   20  A    between atoms: _46  and  _48
REMARK   21  A    between atoms: _48  and  _49
REMARK   22  A    between atoms: _48  and  _51
REMARK   23  A    between atoms: _51  and  _52
REMARK   24  A    between atoms: _57  and  _59
REMARK   25  A    between atoms: _59  and  _60
REMARK   26  A    between atoms: _59  and  _62
REMARK   27  A    between atoms: _65  and  _67
REMARK   28  A    between atoms: _67  and  _68
REMARK   29  A    between atoms: _67  and  _70
REMARK   30  A    between atoms: _70  and  _71
REMARK   31  A    between atoms: _77  and  _79
REMARK   32  A    between atoms: _79  and  _80
REMARK   33  A    between atoms: _79  and  _82
REMARK   34  A    between atoms: _82  and  _83
REMARK   35  A    between atoms: _88  and  _89
REMARK   36  A    between atoms: _91  and  _93
REMARK   37  A    between atoms: _93  and  _94
REMARK   38  A    between atoms: _97  and  _99
REMARK   39  A    between atoms: _99  and  _100
REMARK   40  A    between atoms: _103  and  _105
REMARK   41  A    between atoms: _105  and  _106
REMARK   42  A    between atoms: _105  and  _108
REMARK   43  A    between atoms: _108  and  _109
REMARK   44  A    between atoms: _109  and  _110
REMARK   45  A    between atoms: _112  and  _114
REMARK   46  A    between atoms: _114  and  _115
REMARK   47  A    between atoms: _118  and  _120
REMARK   48  A    between atoms: _120  and  _121
REMARK   49  A    between atoms: _120  and  _123
REMARK   50  A    between atoms: _126  and  _128
REMARK   51  A    between atoms: _128  and  _129
REMARK   52  A    between atoms: _128  and  _131
REMARK   53  A    between atoms: _131  and  _132
REMARK   54  A    between atoms: _132  and  _133
REMARK   55  A    between atoms: _133  and  _134
REMARK   56  A    between atoms: _134  and  _135
REMARK   57  A    between atoms: _139  and  _141
REMARK   58  A    between atoms: _141  and  _142
REMARK   59  A    between atoms: _141  and  _144
REMARK   60  A    between atoms: _144  and  _145
REMARK   61  A    between atoms: _148  and  _150
REMARK   62  A    between atoms: _150  and  _151
REMARK   63  A    between atoms: _150  and  _153
REMARK   64  A    between atoms: _153  and  _154
REMARK   65  A    between atoms: _159  and  _160
REMARK   66  A    between atoms: _162  and  _164
REMARK   67  A    between atoms: _164  and  _165
REMARK   68  A    between atoms: _164  and  _167
REMARK   69  A    between atoms: _167  and  _168
REMARK   70  A    between atoms: _168  and  _169
REMARK   71  A    between atoms: _172  and  _174
REMARK   72  A    between atoms: _174  and  _175
REMARK   73  A    between atoms: _174  and  _177
REMARK   74  A    between atoms: _177  and  _178
REMARK   75  A    between atoms: _181  and  _183
REMARK   76  A    between atoms: _183  and  _184
REMARK   77  A    between atoms: _183  and  _186
REMARK   78  A    between atoms: _190  and  _191
REMARK   79  A    between atoms: _196  and  _198
REMARK   80  A    between atoms: _198  and  _199
REMARK   81  A    between atoms: _198  and  _201
REMARK   82  A    between atoms: _201  and  _202
REMARK   83  A    between atoms: _202  and  _203
REMARK   84  A    between atoms: _208  and  _210
REMARK   85  A    between atoms: _210  and  _211
REMARK   86  A    between atoms: _210  and  _213
REMARK   87  A    between atoms: _213  and  _214
REMARK   88  A    between atoms: _217  and  _219
REMARK   89  A    between atoms: _219  and  _220
REMARK   90  A    between atoms: _219  and  _222
REMARK   91  A    between atoms: _222  and  _223
REMARK   92  A    between atoms: _226  and  _228
REMARK   93  A    between atoms: _228  and  _229
REMARK   94  A    between atoms: _228  and  _231
REMARK   95  A    between atoms: _231  and  _232
REMARK   96  A    between atoms: _232  and  _233
REMARK   97  A    between atoms: _235  and  _237
REMARK   98  A    between atoms: _237  and  _238
REMARK   99  A    between atoms: _237  and  _240
REMARK  100  A    between atoms: _240  and  _241
REMARK  101  A    between atoms: _241  and  _242
REMARK  102  A    between atoms: _245  and  _247
REMARK  103  A    between atoms: _247  and  _248
REMARK  104  A    between atoms: _247  and  _250
REMARK  105  A    between atoms: _250  and  _251
REMARK  106  A    between atoms: _257  and  _259
REMARK  107  A    between atoms: _259  and  _260
REMARK  108  A    between atoms: _259  and  _262
REMARK  109  A    between atoms: _262  and  _263
REMARK  110  A    between atoms: _266  and  _268
REMARK  111  A    between atoms: _268  and  _269
REMARK  112  A    between atoms: _271  and  _273
REMARK  113  A    between atoms: _273  and  _274
REMARK  114  A    between atoms: _273  and  _276
REMARK  115  A    between atoms: _276  and  _277
REMARK  116  A    between atoms: _277  and  _278
REMARK  117  A    between atoms: _281  and  _283
REMARK  118  A    between atoms: _283  and  _284
REMARK  119  A    between atoms: _283  and  _286
REMARK  120  A    between atoms: _286  and  _287
REMARK  121  A    between atoms: _287  and  _288
REMARK  122  A    between atoms: _291  and  _293
REMARK  123  A    between atoms: _293  and  _294
REMARK  124  A    between atoms: _293  and  _296
REMARK  125  A    between atoms: _296  and  _297
REMARK  126  A    between atoms: _301  and  _302
REMARK  127  A    between atoms: _307  and  _309
REMARK  128  A    between atoms: _309  and  _310
REMARK  129  A    between atoms: _314  and  _315
REMARK  130  A    between atoms: _320  and  _322
REMARK  131  A    between atoms: _322  and  _323
REMARK  132  A    between atoms: _322  and  _325
REMARK  133  A    between atoms: _325  and  _326
REMARK  134  A    between atoms: _329  and  _331
REMARK  135  A    between atoms: _331  and  _332
REMARK  136  A    between atoms: _331  and  _334
REMARK  137  A    between atoms: _334  and  _335
REMARK  138  A    between atoms: _338  and  _340
REMARK  139  A    between atoms: _340  and  _341
REMARK  140  A    between atoms: _340  and  _343
REMARK  141  A    between atoms: _346  and  _348
REMARK  142  A    between atoms: _348  and  _349
REMARK  143  A    between atoms: _348  and  _351
REMARK  144  A    between atoms: _351  and  _352
REMARK  145  A    between atoms: _352  and  _353
REMARK  146  A    between atoms: _356  and  _358
REMARK  147  A    between atoms: _358  and  _359
REMARK  148  A    between atoms: _358  and  _361
REMARK  149  A    between atoms: _361  and  _362
REMARK  150  A    between atoms: _362  and  _363
REMARK  151  A    between atoms: _366  and  _368
REMARK  152  A    between atoms: _368  and  _369
REMARK  153  A    between atoms: _368  and  _371
REMARK  154  A    between atoms: _371  and  _372
REMARK  155  A    between atoms: _377  and  _378
REMARK  156  A    between atoms: _380  and  _382
REMARK  157  A    between atoms: _382  and  _383
REMARK  158  A    between atoms: _382  and  _385
REMARK  159  A    between atoms: _385  and  _386
REMARK  160  A    between atoms: _391  and  _393
REMARK  161  A    between atoms: _393  and  _394
REMARK  162  A    between atoms: _393  and  _396
REMARK  163  A    between atoms: _396  and  _397
REMARK  164  A    between atoms: _400  and  _402
REMARK  165  A    between atoms: _402  and  _403
REMARK  166  A    between atoms: _402  and  _405
REMARK  167  A    between atoms: _405  and  _406
REMARK  168  A    between atoms: _406  and  _407
REMARK  169  A    between atoms: _409  and  _411
REMARK  170  A    between atoms: _411  and  _412
REMARK  171  A    between atoms: _411  and  _414
REMARK  172  A    between atoms: _414  and  _415
REMARK  173  A    between atoms: _420  and  _421
REMARK  174  A    between atoms: _423  and  _425
REMARK  175  A    between atoms: _425  and  _426
REMARK  176  A    between atoms: _425  and  _428
REMARK  177  A    between atoms: _428  and  _429
REMARK  178  A    between atoms: _435  and  _437
REMARK  179  A    between atoms: _437  and  _438
REMARK  180  A    between atoms: _437  and  _440
REMARK  181  A    between atoms: _440  and  _441
REMARK  182  A    between atoms: _444  and  _446
REMARK  183  A    between atoms: _446  and  _447
REMARK  184  A    between atoms: _446  and  _449
REMARK  185  A    between atoms: _449  and  _450
REMARK  186  A    between atoms: _453  and  _455
REMARK  187  A    between atoms: _455  and  _456
REMARK  188  A    between atoms: _455  and  _458
REMARK  189  A    between atoms: _458  and  _459
REMARK  190  A    between atoms: _459  and  _460
REMARK  191  A    between atoms: _462  and  _464
REMARK  192  A    between atoms: _464  and  _465
REMARK                            x       y       z     vdW  Elec       q    Type
REMARK                         _______ _______ _______ _____ _____    ______ ____
ROOT
ATOM      1  O   HOH     1       5.024   2.268  22.147  0.00  0.00    +0.000 OA
ENDROOT
TORSDOF 0
