REMARK  Name = ../refined-set-2016/3twp/3twp_pocket.pdb
REMARK  99 active torsions:
REMARK  status: ('A' for Active; 'I' for Inactive)
REMARK    1  A    between atoms: _1  and  _3
REMARK    2  A    between atoms: _3  and  _4
REMARK    3  A    between atoms: _3  and  _6
REMARK    4  A    between atoms: _6  and  _7
REMARK    5  A    between atoms: _7  and  _8
REMARK    6  A    between atoms: _10  and  _12
REMARK    7  A    between atoms: _12  and  _13
REMARK    8  A    between atoms: _12  and  _15
REMARK    9  A    between atoms: _15  and  _16
REMARK   10  A    between atoms: _16  and  _17
REMARK   11  A    between atoms: _19  and  _21
REMARK   12  A    between atoms: _21  and  _22
REMARK   13  A    between atoms: _21  and  _24
REMARK   14  A    between atoms: _24  and  _25
REMARK   15  A    between atoms: _30  and  _32
REMARK   16  A    between atoms: _32  and  _33
REMARK   17  A    between atoms: _35  and  _37
REMARK   18  A    between atoms: _37  and  _38
REMARK   19  A    between atoms: _37  and  _40
REMARK   20  A    between atoms: _40  and  _41
REMARK   21  A    between atoms: _46  and  _48
REMARK   22  A    between atoms: _48  and  _49
REMARK   23  A    between atoms: _48  and  _51
REMARK   24  A    between atoms: _51  and  _52
REMARK   25  A    between atoms: _52  and  _53
REMARK   26  A    between atoms: _53  and  _54
REMARK   27  A    between atoms: _63  and  _65
REMARK   28  A    between atoms: _65  and  _66
REMARK   29  A    between atoms: _69  and  _71
REMARK   30  A    between atoms: _71  and  _72
REMARK   31  A    between atoms: _75  and  _77
REMARK   32  A    between atoms: _77  and  _78
REMARK   33  A    between atoms: _77  and  _80
REMARK   34  A    between atoms: _80  and  _81
REMARK   35  A    between atoms: _87  and  _89
REMARK   36  A    between atoms: _89  and  _90
REMARK   37  A    between atoms: _94  and  _95
REMARK   38  A    between atoms: _100  and  _102
REMARK   39  A    between atoms: _102  and  _103
REMARK   40  A    between atoms: _102  and  _105
REMARK   41  A    between atoms: _105  and  _106
REMARK   42  A    between atoms: _106  and  _107
REMARK   43  A    between atoms: _107  and  _108
REMARK   44  A    between atoms: _117  and  _119
REMARK   45  A    between atoms: _119  and  _120
REMARK   46  A    between atoms: _119  and  _122
REMARK   47  A    between atoms: _122  and  _123
REMARK   48  A    between atoms: _129  and  _131
REMARK   49  A    between atoms: _131  and  _132
REMARK   50  A    between atoms: _131  and  _134
REMARK   51  A    between atoms: _134  and  _135
REMARK   52  A    between atoms: _141  and  _142
REMARK   53  A    between atoms: _147  and  _149
REMARK   54  A    between atoms: _149  and  _150
REMARK   55  A    between atoms: _149  and  _152
REMARK   56  A    between atoms: _152  and  _153
REMARK   57  A    between atoms: _155  and  _157
REMARK   58  A    between atoms: _157  and  _158
REMARK   59  A    between atoms: _157  and  _160
REMARK   60  A    between atoms: _160  and  _161
REMARK   61  A    between atoms: _166  and  _167
REMARK   62  A    between atoms: _169  and  _171
REMARK   63  A    between atoms: _171  and  _172
REMARK   64  A    between atoms: _171  and  _174
REMARK   65  A    between atoms: _174  and  _175
REMARK   66  A    between atoms: _175  and  _176
REMARK   67  A    between atoms: _176  and  _177
REMARK   68  A    between atoms: _186  and  _188
REMARK   69  A    between atoms: _188  and  _189
REMARK   70  A    between atoms: _188  and  _191
REMARK   71  A    between atoms: _191  and  _192
REMARK   72  A    between atoms: _197  and  _199
REMARK   73  A    between atoms: _199  and  _200
REMARK   74  A    between atoms: _203  and  _205
REMARK   75  A    between atoms: _205  and  _206
REMARK   76  A    between atoms: _209  and  _211
REMARK   77  A    between atoms: _211  and  _212
REMARK   78  A    between atoms: _215  and  _217
REMARK   79  A    between atoms: _217  and  _218
REMARK   80  A    between atoms: _217  and  _220
REMARK   81  A    between atoms: _220  and  _221
REMARK   82  A    between atoms: _221  and  _222
REMARK   83  A    between atoms: _222  and  _223
REMARK   84  A    between atoms: _232  and  _234
REMARK   85  A    between atoms: _234  and  _235
REMARK   86  A    between atoms: _234  and  _237
REMARK   87  A    between atoms: _237  and  _238
REMARK   88  A    between atoms: _238  and  _239
REMARK   89  A    between atoms: _239  and  _240
REMARK   90  A    between atoms: _249  and  _251
REMARK   91  A    between atoms: _251  and  _252
REMARK   92  A    between atoms: _251  and  _254
REMARK   93  A    between atoms: _254  and  _255
REMARK   94  A    between atoms: _258  and  _260
REMARK   95  A    between atoms: _260  and  _261
REMARK   96  A    between atoms: _263  and  _265
REMARK   97  A    between atoms: _265  and  _266
REMARK   98  A    between atoms: _265  and  _268
REMARK   99  A    between atoms: _268  and  _269
REMARK                            x       y       z     vdW  Elec       q    Type
REMARK                         _______ _______ _______ _____ _____    ______ ____
ROOT
ATOM      1  CA  MET A   1      59.521  78.413  28.228  0.00  0.00    +0.134 C 
ENDROOT
BRANCH   1   2
ATOM      2  N   MET A   1      58.718  79.374  29.001  0.00  0.00    -0.239 NA
ATOM      3  H   MET A   1      58.140  79.025  29.792  0.00  0.00    +0.142 HD
ENDBRANCH   1   2
BRANCH   1   4
ATOM      4  C   MET A   1      58.869  78.024  26.882  0.00  0.00    +0.224 C 
ATOM      5  O   MET A   1      59.517  77.425  26.014  0.00  0.00    -0.287 OA
ENDBRANCH   1   4
BRANCH   1   6
ATOM      6  CB  MET A   1      59.806  77.149  29.058  0.00  0.00    +0.037 C 
BRANCH   6   7
ATOM      7  CG  MET A   1      60.692  77.351  30.300  0.00  0.00    +0.059 C 
BRANCH   7   8
ATOM      8  SD  MET A   1      62.390  77.821  29.939  0.00  0.00    -0.139 S 
ATOM      9  CE  MET A   1      62.981  76.290  29.206  0.00  0.00    +0.069 C 
ENDBRANCH   7   8
ENDBRANCH   6   7
ENDBRANCH   1   6
TORSDOF 5
REMARK  Name = ../refined-set-2016/3twp/3twp_pocket.pdb
REMARK  99 active torsions:
REMARK  status: ('A' for Active; 'I' for Inactive)
REMARK    1  A    between atoms: _1  and  _3
REMARK    2  A    between atoms: _3  and  _4
REMARK    3  A    between atoms: _3  and  _6
REMARK    4  A    between atoms: _6  and  _7
REMARK    5  A    between atoms: _7  and  _8
REMARK    6  A    between atoms: _10  and  _12
REMARK    7  A    between atoms: _12  and  _13
REMARK    8  A    between atoms: _12  and  _15
REMARK    9  A    between atoms: _15  and  _16
REMARK   10  A    between atoms: _16  and  _17
REMARK   11  A    between atoms: _19  and  _21
REMARK   12  A    between atoms: _21  and  _22
REMARK   13  A    between atoms: _21  and  _24
REMARK   14  A    between atoms: _24  and  _25
REMARK   15  A    between atoms: _30  and  _32
REMARK   16  A    between atoms: _32  and  _33
REMARK   17  A    between atoms: _35  and  _37
REMARK   18  A    between atoms: _37  and  _38
REMARK   19  A    between atoms: _37  and  _40
REMARK   20  A    between atoms: _40  and  _41
REMARK   21  A    between atoms: _46  and  _48
REMARK   22  A    between atoms: _48  and  _49
REMARK   23  A    between atoms: _48  and  _51
REMARK   24  A    between atoms: _51  and  _52
REMARK   25  A    between atoms: _52  and  _53
REMARK   26  A    between atoms: _53  and  _54
REMARK   27  A    between atoms: _63  and  _65
REMARK   28  A    between atoms: _65  and  _66
REMARK   29  A    between atoms: _69  and  _71
REMARK   30  A    between atoms: _71  and  _72
REMARK   31  A    between atoms: _75  and  _77
REMARK   32  A    between atoms: _77  and  _78
REMARK   33  A    between atoms: _77  and  _80
REMARK   34  A    between atoms: _80  and  _81
REMARK   35  A    between atoms: _87  and  _89
REMARK   36  A    between atoms: _89  and  _90
REMARK   37  A    between atoms: _94  and  _95
REMARK   38  A    between atoms: _100  and  _102
REMARK   39  A    between atoms: _102  and  _103
REMARK   40  A    between atoms: _102  and  _105
REMARK   41  A    between atoms: _105  and  _106
REMARK   42  A    between atoms: _106  and  _107
REMARK   43  A    between atoms: _107  and  _108
REMARK   44  A    between atoms: _117  and  _119
REMARK   45  A    between atoms: _119  and  _120
REMARK   46  A    between atoms: _119  and  _122
REMARK   47  A    between atoms: _122  and  _123
REMARK   48  A    between atoms: _129  and  _131
REMARK   49  A    between atoms: _131  and  _132
REMARK   50  A    between atoms: _131  and  _134
REMARK   51  A    between atoms: _134  and  _135
REMARK   52  A    between atoms: _141  and  _142
REMARK   53  A    between atoms: _147  and  _149
REMARK   54  A    between atoms: _149  and  _150
REMARK   55  A    between atoms: _149  and  _152
REMARK   56  A    between atoms: _152  and  _153
REMARK   57  A    between atoms: _155  and  _157
REMARK   58  A    between atoms: _157  and  _158
REMARK   59  A    between atoms: _157  and  _160
REMARK   60  A    between atoms: _160  and  _161
REMARK   61  A    between atoms: _166  and  _167
REMARK   62  A    between atoms: _169  and  _171
REMARK   63  A    between atoms: _171  and  _172
REMARK   64  A    between atoms: _171  and  _174
REMARK   65  A    between atoms: _174  and  _175
REMARK   66  A    between atoms: _175  and  _176
REMARK   67  A    between atoms: _176  and  _177
REMARK   68  A    between atoms: _186  and  _188
REMARK   69  A    between atoms: _188  and  _189
REMARK   70  A    between atoms: _188  and  _191
REMARK   71  A    between atoms: _191  and  _192
REMARK   72  A    between atoms: _197  and  _199
REMARK   73  A    between atoms: _199  and  _200
REMARK   74  A    between atoms: _203  and  _205
REMARK   75  A    between atoms: _205  and  _206
REMARK   76  A    between atoms: _209  and  _211
REMARK   77  A    between atoms: _211  and  _212
REMARK   78  A    between atoms: _215  and  _217
REMARK   79  A    between atoms: _217  and  _218
REMARK   80  A    between atoms: _217  and  _220
REMARK   81  A    between atoms: _220  and  _221
REMARK   82  A    between atoms: _221  and  _222
REMARK   83  A    between atoms: _222  and  _223
REMARK   84  A    between atoms: _232  and  _234
REMARK   85  A    between atoms: _234  and  _235
REMARK   86  A    between atoms: _234  and  _237
REMARK   87  A    between atoms: _237  and  _238
REMARK   88  A    between atoms: _238  and  _239
REMARK   89  A    between atoms: _239  and  _240
REMARK   90  A    between atoms: _249  and  _251
REMARK   91  A    between atoms: _251  and  _252
REMARK   92  A    between atoms: _251  and  _254
REMARK   93  A    between atoms: _254  and  _255
REMARK   94  A    between atoms: _258  and  _260
REMARK   95  A    between atoms: _260  and  _261
REMARK   96  A    between atoms: _263  and  _265
REMARK   97  A    between atoms: _265  and  _266
REMARK   98  A    between atoms: _265  and  _268
REMARK   99  A    between atoms: _268  and  _269
REMARK                            x       y       z     vdW  Elec       q    Type
REMARK                         _______ _______ _______ _____ _____    ______ ____
ROOT
ATOM      1  CA  MET A   1      63.221  73.972  32.724  0.00  0.00    +0.134 C 
ENDROOT
BRANCH   1   2
ATOM      2  N   MET A   1      62.070  73.866  33.623  0.00  0.00    -0.239 NA
ATOM      3  H   MET A   1      62.089  74.335  34.551  0.00  0.00    +0.142 HD
ENDBRANCH   1   2
BRANCH   1   4
ATOM      4  C   MET A   1      63.783  72.591  32.401  0.00  0.00    +0.224 C 
ATOM      5  O   MET A   1      64.131  72.292  31.240  0.00  0.00    -0.287 OA
ENDBRANCH   1   4
BRANCH   1   6
ATOM      6  CB  MET A   1      64.323  74.829  33.336  0.00  0.00    +0.037 C 
BRANCH   6   7
ATOM      7  CG  MET A   1      64.019  76.303  33.334  0.00  0.00    +0.059 C 
BRANCH   7   8
ATOM      8  SD  MET A   1      65.507  77.266  33.730  0.00  0.00    -0.139 S 
ATOM      9  CE  MET A   1      66.702  76.779  32.541  0.00  0.00    +0.069 C 
ENDBRANCH   7   8
ENDBRANCH   6   7
ENDBRANCH   1   6
TORSDOF 5
REMARK  Name = ../refined-set-2016/3twp/3twp_pocket.pdb
REMARK  99 active torsions:
REMARK  status: ('A' for Active; 'I' for Inactive)
REMARK    1  A    between atoms: _1  and  _3
REMARK    2  A    between atoms: _3  and  _4
REMARK    3  A    between atoms: _3  and  _6
REMARK    4  A    between atoms: _6  and  _7
REMARK    5  A    between atoms: _7  and  _8
REMARK    6  A    between atoms: _10  and  _12
REMARK    7  A    between atoms: _12  and  _13
REMARK    8  A    between atoms: _12  and  _15
REMARK    9  A    between atoms: _15  and  _16
REMARK   10  A    between atoms: _16  and  _17
REMARK   11  A    between atoms: _19  and  _21
REMARK   12  A    between atoms: _21  and  _22
REMARK   13  A    between atoms: _21  and  _24
REMARK   14  A    between atoms: _24  and  _25
REMARK   15  A    between atoms: _30  and  _32
REMARK   16  A    between atoms: _32  and  _33
REMARK   17  A    between atoms: _35  and  _37
REMARK   18  A    between atoms: _37  and  _38
REMARK   19  A    between atoms: _37  and  _40
REMARK   20  A    between atoms: _40  and  _41
REMARK   21  A    between atoms: _46  and  _48
REMARK   22  A    between atoms: _48  and  _49
REMARK   23  A    between atoms: _48  and  _51
REMARK   24  A    between atoms: _51  and  _52
REMARK   25  A    between atoms: _52  and  _53
REMARK   26  A    between atoms: _53  and  _54
REMARK   27  A    between atoms: _63  and  _65
REMARK   28  A    between atoms: _65  and  _66
REMARK   29  A    between atoms: _69  and  _71
REMARK   30  A    between atoms: _71  and  _72
REMARK   31  A    between atoms: _75  and  _77
REMARK   32  A    between atoms: _77  and  _78
REMARK   33  A    between atoms: _77  and  _80
REMARK   34  A    between atoms: _80  and  _81
REMARK   35  A    between atoms: _87  and  _89
REMARK   36  A    between atoms: _89  and  _90
REMARK   37  A    between atoms: _94  and  _95
REMARK   38  A    between atoms: _100  and  _102
REMARK   39  A    between atoms: _102  and  _103
REMARK   40  A    between atoms: _102  and  _105
REMARK   41  A    between atoms: _105  and  _106
REMARK   42  A    between atoms: _106  and  _107
REMARK   43  A    between atoms: _107  and  _108
REMARK   44  A    between atoms: _117  and  _119
REMARK   45  A    between atoms: _119  and  _120
REMARK   46  A    between atoms: _119  and  _122
REMARK   47  A    between atoms: _122  and  _123
REMARK   48  A    between atoms: _129  and  _131
REMARK   49  A    between atoms: _131  and  _132
REMARK   50  A    between atoms: _131  and  _134
REMARK   51  A    between atoms: _134  and  _135
REMARK   52  A    between atoms: _141  and  _142
REMARK   53  A    between atoms: _147  and  _149
REMARK   54  A    between atoms: _149  and  _150
REMARK   55  A    between atoms: _149  and  _152
REMARK   56  A    between atoms: _152  and  _153
REMARK   57  A    between atoms: _155  and  _157
REMARK   58  A    between atoms: _157  and  _158
REMARK   59  A    between atoms: _157  and  _160
REMARK   60  A    between atoms: _160  and  _161
REMARK   61  A    between atoms: _166  and  _167
REMARK   62  A    between atoms: _169  and  _171
REMARK   63  A    between atoms: _171  and  _172
REMARK   64  A    between atoms: _171  and  _174
REMARK   65  A    between atoms: _174  and  _175
REMARK   66  A    between atoms: _175  and  _176
REMARK   67  A    between atoms: _176  and  _177
REMARK   68  A    between atoms: _186  and  _188
REMARK   69  A    between atoms: _188  and  _189
REMARK   70  A    between atoms: _188  and  _191
REMARK   71  A    between atoms: _191  and  _192
REMARK   72  A    between atoms: _197  and  _199
REMARK   73  A    between atoms: _199  and  _200
REMARK   74  A    between atoms: _203  and  _205
REMARK   75  A    between atoms: _205  and  _206
REMARK   76  A    between atoms: _209  and  _211
REMARK   77  A    between atoms: _211  and  _212
REMARK   78  A    between atoms: _215  and  _217
REMARK   79  A    between atoms: _217  and  _218
REMARK   80  A    between atoms: _217  and  _220
REMARK   81  A    between atoms: _220  and  _221
REMARK   82  A    between atoms: _221  and  _222
REMARK   83  A    between atoms: _222  and  _223
REMARK   84  A    between atoms: _232  and  _234
REMARK   85  A    between atoms: _234  and  _235
REMARK   86  A    between atoms: _234  and  _237
REMARK   87  A    between atoms: _237  and  _238
REMARK   88  A    between atoms: _238  and  _239
REMARK   89  A    between atoms: _239  and  _240
REMARK   90  A    between atoms: _249  and  _251
REMARK   91  A    between atoms: _251  and  _252
REMARK   92  A    between atoms: _251  and  _254
REMARK   93  A    between atoms: _254  and  _255
REMARK   94  A    between atoms: _258  and  _260
REMARK   95  A    between atoms: _260  and  _261
REMARK   96  A    between atoms: _263  and  _265
REMARK   97  A    between atoms: _265  and  _266
REMARK   98  A    between atoms: _265  and  _268
REMARK   99  A    between atoms: _268  and  _269
REMARK                            x       y       z     vdW  Elec       q    Type
REMARK                         _______ _______ _______ _____ _____    ______ ____
ROOT
ATOM      1  C   ASN A   3      78.829  80.339  30.278  0.00  0.00    +0.241 C 
ATOM      2  O   ASN A   3      79.823  80.279  31.028  0.00  0.00    -0.273 OA
ATOM      3  N   ARG A   4      78.706  81.221  29.295  0.00  0.00    -0.297 N 
ATOM      4  H   ARG A   4      77.918  81.117  28.624  0.00  0.00    +0.150 HD
ENDROOT
BRANCH   1   5
ATOM      5  CA  ASN A   3      77.671  79.353  30.426  0.00  0.00    +0.158 C 
BRANCH   5   7
ATOM      6  C   GLY A   2      77.500  77.140  31.394  0.00  0.00    +0.243 C 
ATOM      7  N   ASN A   3      78.087  78.334  31.350  0.00  0.00    -0.297 N 
ATOM      8  H   ASN A   3      78.870  78.535  32.004  0.00  0.00    +0.150 HD
ATOM      9  O   GLY A   2      76.638  76.767  30.602  0.00  0.00    -0.273 OA
BRANCH   6  10
ATOM     10  CA  GLY A   2      77.996  76.232  32.499  0.00  0.00    +0.176 C 
BRANCH  10  13
ATOM     11  C   HIS A   1      77.574  74.135  33.535  0.00  0.00    +0.239 C 
ATOM     12  O   HIS A   1      78.352  74.473  34.451  0.00  0.00    -0.274 OA
ATOM     13  N   GLY A   2      77.376  74.912  32.482  0.00  0.00    -0.296 N 
ATOM     14  H   GLY A   2      76.802  74.594  31.675  0.00  0.00    +0.150 HD
BRANCH  11  15
ATOM     15  CA  HIS A   1      76.842  72.784  33.571  0.00  0.00    +0.151 C 
BRANCH  15  16
ATOM     16  N   HIS A   1      77.720  71.814  34.245  0.00  0.00    -0.238 NA
ATOM     17  H   HIS A   1      77.651  71.704  35.277  0.00  0.00    +0.142 HD
ENDBRANCH  15  16
BRANCH  15  18
ATOM     18  CB  HIS A   1      75.532  72.897  34.349  0.00  0.00    +0.074 C 
BRANCH  18  19
ATOM     19  CG  HIS A   1      74.363  73.412  33.561  0.00  0.00    +0.082 A 
ATOM     20  ND1 HIS A   1      73.263  73.985  34.175  0.00  0.00    -0.227 NA
ATOM     21  CE1 HIS A   1      72.382  74.331  33.253  0.00  0.00    +0.199 A 
ATOM     22  NE2 HIS A   1      72.866  74.003  32.067  0.00  0.00    -0.221 NA
ATOM     23  CD2 HIS A   1      74.104  73.428  32.230  0.00  0.00    +0.115 A 
ENDBRANCH  18  19
ENDBRANCH  15  18
ENDBRANCH  11  15
ENDBRANCH  10  13
ENDBRANCH   6  10
ENDBRANCH   5   7
BRANCH   5  24
ATOM     24  CB  ASN A   3      76.405  80.051  30.946  0.00  0.00    +0.114 C 
BRANCH  24  25
ATOM     25  CG  ASN A   3      75.529  80.605  29.823  0.00  0.00    +0.222 C 
ATOM     26  ND2 ASN A   3      74.272  80.884  30.146  0.00  0.00    -0.329 N 
ATOM     27 HD21 ASN A   3      73.936  80.719  31.116  0.00  0.00    +0.145 HD
ATOM     28 HD22 ASN A   3      73.624  81.267  29.429  0.00  0.00    +0.145 HD
ATOM     29  OD1 ASN A   3      75.981  80.782  28.683  0.00  0.00    -0.275 OA
ENDBRANCH  24  25
ENDBRANCH   5  24
ENDBRANCH   1   5
BRANCH   3  30
ATOM     30  CA  ARG A   4      79.634  82.329  29.122  0.00  0.00    +0.149 C 
BRANCH  30  31
ATOM     31  C   ARG A   4      79.439  83.341  30.260  0.00  0.00    +0.241 C 
ATOM     32  O   ARG A   4      78.525  83.196  31.067  0.00  0.00    -0.273 OA
ATOM     33  N   ALA A   5      80.331  84.320  30.354  0.00  0.00    -0.297 N 
ATOM     34  H   ALA A   5      81.157  84.298  29.723  0.00  0.00    +0.150 HD
BRANCH  33  35
ATOM     35  CA  ALA A   5      80.209  85.438  31.309  0.00  0.00    +0.149 C 
ATOM     36  CB  ALA A   5      81.340  86.427  31.073  0.00  0.00    +0.031 C 
BRANCH  35  37
ATOM     37  C   ALA A   5      78.871  86.156  31.153  0.00  0.00    +0.241 C 
ATOM     38  N   ALA A   6      78.348  86.683  32.262  0.00  0.00    -0.298 N 
ATOM     39  H   ALA A   6      78.760  86.419  33.180  0.00  0.00    +0.150 HD
ATOM     40  O   ALA A   5      78.321  86.211  30.054  0.00  0.00    -0.273 OA
BRANCH  38  41
ATOM     41  CA  ALA A   6      77.223  87.614  32.245  0.00  0.00    +0.137 C 
ATOM     42  CB  ALA A   6      76.106  87.123  33.166  0.00  0.00    +0.030 C 
BRANCH  41  43
ATOM     43  C   ALA A   6      77.759  88.968  32.708  0.00  0.00    +0.227 C 
ATOM     44  O   ALA A   6      77.653  89.948  31.992  0.00  0.00    -0.286 OA
ENDBRANCH  41  43
ENDBRANCH  38  41
ENDBRANCH  35  37
ENDBRANCH  33  35
ENDBRANCH  30  31
BRANCH  30  45
ATOM     45  CB  ARG A   4      79.403  82.986  27.752  0.00  0.00    +0.033 C 
BRANCH  45  46
ATOM     46  CG  ARG A   4      79.660  82.018  26.582  0.00  0.00    +0.045 C 
BRANCH  46  47
ATOM     47  CD  ARG A   4      79.740  82.807  25.259  0.00  0.00    +0.174 C 
BRANCH  47  48
ATOM     48  NE  ARG A   4      80.018  81.952  24.104  0.00  0.00    -0.265 N 
ATOM     49  CZ  ARG A   4      81.234  81.566  23.720  0.00  0.00    +0.342 C 
ATOM     50  NH2 ARG A   4      82.318  81.948  24.398  0.00  0.00    -0.292 N 
ATOM     51 HH21 ARG A   4      82.220  82.554  25.237  0.00  0.00    +0.255 HD
ATOM     52 HH22 ARG A   4      83.261  81.639  24.087  0.00  0.00    +0.255 HD
ATOM     53  NH1 ARG A   4      81.373  80.819  22.622  0.00  0.00    -0.292 N 
ATOM     54 HH11 ARG A   4      82.319  80.514  22.317  0.00  0.00    +0.255 HD
ATOM     55 HH12 ARG A   4      80.535  80.542  22.072  0.00  0.00    +0.255 HD
ATOM     56  HE  ARG A   4      79.207  81.622  23.542  0.00  0.00    +0.259 HD
ENDBRANCH  47  48
ENDBRANCH  46  47
ENDBRANCH  45  46
ENDBRANCH  30  45
ENDBRANCH   3  30
TORSDOF 20
REMARK  Name = ../refined-set-2016/3twp/3twp_pocket.pdb
REMARK  99 active torsions:
REMARK  status: ('A' for Active; 'I' for Inactive)
REMARK    1  A    between atoms: _1  and  _3
REMARK    2  A    between atoms: _3  and  _4
REMARK    3  A    between atoms: _3  and  _6
REMARK    4  A    between atoms: _6  and  _7
REMARK    5  A    between atoms: _7  and  _8
REMARK    6  A    between atoms: _10  and  _12
REMARK    7  A    between atoms: _12  and  _13
REMARK    8  A    between atoms: _12  and  _15
REMARK    9  A    between atoms: _15  and  _16
REMARK   10  A    between atoms: _16  and  _17
REMARK   11  A    between atoms: _19  and  _21
REMARK   12  A    between atoms: _21  and  _22
REMARK   13  A    between atoms: _21  and  _24
REMARK   14  A    between atoms: _24  and  _25
REMARK   15  A    between atoms: _30  and  _32
REMARK   16  A    between atoms: _32  and  _33
REMARK   17  A    between atoms: _35  and  _37
REMARK   18  A    between atoms: _37  and  _38
REMARK   19  A    between atoms: _37  and  _40
REMARK   20  A    between atoms: _40  and  _41
REMARK   21  A    between atoms: _46  and  _48
REMARK   22  A    between atoms: _48  and  _49
REMARK   23  A    between atoms: _48  and  _51
REMARK   24  A    between atoms: _51  and  _52
REMARK   25  A    between atoms: _52  and  _53
REMARK   26  A    between atoms: _53  and  _54
REMARK   27  A    between atoms: _63  and  _65
REMARK   28  A    between atoms: _65  and  _66
REMARK   29  A    between atoms: _69  and  _71
REMARK   30  A    between atoms: _71  and  _72
REMARK   31  A    between atoms: _75  and  _77
REMARK   32  A    between atoms: _77  and  _78
REMARK   33  A    between atoms: _77  and  _80
REMARK   34  A    between atoms: _80  and  _81
REMARK   35  A    between atoms: _87  and  _89
REMARK   36  A    between atoms: _89  and  _90
REMARK   37  A    between atoms: _94  and  _95
REMARK   38  A    between atoms: _100  and  _102
REMARK   39  A    between atoms: _102  and  _103
REMARK   40  A    between atoms: _102  and  _105
REMARK   41  A    between atoms: _105  and  _106
REMARK   42  A    between atoms: _106  and  _107
REMARK   43  A    between atoms: _107  and  _108
REMARK   44  A    between atoms: _117  and  _119
REMARK   45  A    between atoms: _119  and  _120
REMARK   46  A    between atoms: _119  and  _122
REMARK   47  A    between atoms: _122  and  _123
REMARK   48  A    between atoms: _129  and  _131
REMARK   49  A    between atoms: _131  and  _132
REMARK   50  A    between atoms: _131  and  _134
REMARK   51  A    between atoms: _134  and  _135
REMARK   52  A    between atoms: _141  and  _142
REMARK   53  A    between atoms: _147  and  _149
REMARK   54  A    between atoms: _149  and  _150
REMARK   55  A    between atoms: _149  and  _152
REMARK   56  A    between atoms: _152  and  _153
REMARK   57  A    between atoms: _155  and  _157
REMARK   58  A    between atoms: _157  and  _158
REMARK   59  A    between atoms: _157  and  _160
REMARK   60  A    between atoms: _160  and  _161
REMARK   61  A    between atoms: _166  and  _167
REMARK   62  A    between atoms: _169  and  _171
REMARK   63  A    between atoms: _171  and  _172
REMARK   64  A    between atoms: _171  and  _174
REMARK   65  A    between atoms: _174  and  _175
REMARK   66  A    between atoms: _175  and  _176
REMARK   67  A    between atoms: _176  and  _177
REMARK   68  A    between atoms: _186  and  _188
REMARK   69  A    between atoms: _188  and  _189
REMARK   70  A    between atoms: _188  and  _191
REMARK   71  A    between atoms: _191  and  _192
REMARK   72  A    between atoms: _197  and  _199
REMARK   73  A    between atoms: _199  and  _200
REMARK   74  A    between atoms: _203  and  _205
REMARK   75  A    between atoms: _205  and  _206
REMARK   76  A    between atoms: _209  and  _211
REMARK   77  A    between atoms: _211  and  _212
REMARK   78  A    between atoms: _215  and  _217
REMARK   79  A    between atoms: _217  and  _218
REMARK   80  A    between atoms: _217  and  _220
REMARK   81  A    between atoms: _220  and  _221
REMARK   82  A    between atoms: _221  and  _222
REMARK   83  A    between atoms: _222  and  _223
REMARK   84  A    between atoms: _232  and  _234
REMARK   85  A    between atoms: _234  and  _235
REMARK   86  A    between atoms: _234  and  _237
REMARK   87  A    between atoms: _237  and  _238
REMARK   88  A    between atoms: _238  and  _239
REMARK   89  A    between atoms: _239  and  _240
REMARK   90  A    between atoms: _249  and  _251
REMARK   91  A    between atoms: _251  and  _252
REMARK   92  A    between atoms: _251  and  _254
REMARK   93  A    between atoms: _254  and  _255
REMARK   94  A    between atoms: _258  and  _260
REMARK   95  A    between atoms: _260  and  _261
REMARK   96  A    between atoms: _263  and  _265
REMARK   97  A    between atoms: _265  and  _266
REMARK   98  A    between atoms: _265  and  _268
REMARK   99  A    between atoms: _268  and  _269
REMARK                            x       y       z     vdW  Elec       q    Type
REMARK                         _______ _______ _______ _____ _____    ______ ____
ROOT
ATOM      1  C   HIS A   6      67.545  75.924  26.232  0.00  0.00    +0.244 C 
ATOM      2  O   HIS A   6      67.301  77.104  26.565  0.00  0.00    -0.273 OA
ATOM      3  N   PRO A   7      67.381  75.482  24.968  0.00  0.00    -0.272 N 
ATOM      4  CD  PRO A   7      67.290  74.088  24.482  0.00  0.00    +0.094 C 
ATOM      5  CG  PRO A   7      66.503  74.223  23.180  0.00  0.00    +0.024 C 
ATOM      6  CB  PRO A   7      66.900  75.556  22.647  0.00  0.00    +0.031 C 
ATOM      7  CA  PRO A   7      67.068  76.445  23.909  0.00  0.00    +0.152 C 
ENDROOT
BRANCH   7   8
ATOM      8  C   PRO A   7      65.795  77.256  24.181  0.00  0.00    +0.241 C 
ATOM      9  N   SER A   8      64.809  76.653  24.843  0.00  0.00    -0.295 N 
ATOM     10  H   SER A   8      64.943  75.674  25.166  0.00  0.00    +0.150 HD
ATOM     11  O   PRO A   7      65.734  78.421  23.787  0.00  0.00    -0.273 OA
BRANCH   9  12
ATOM     12  CA  SER A   8      63.537  77.332  25.130  0.00  0.00    +0.178 C 
BRANCH  12  13
ATOM     13  C   SER A   8      63.601  78.382  26.244  0.00  0.00    +0.243 C 
ATOM     14  N   TYR A   9      64.747  78.462  26.914  0.00  0.00    -0.297 N 
ATOM     15  H   TYR A   9      65.489  77.757  26.727  0.00  0.00    +0.150 HD
ATOM     16  O   SER A   8      62.629  79.107  26.481  0.00  0.00    -0.273 OA
BRANCH  14  17
ATOM     17  CA  TYR A   9      64.998  79.502  27.900  0.00  0.00    +0.153 C 
BRANCH  17  18
ATOM     18  C   TYR A   9      65.426  80.826  27.246  0.00  0.00    +0.241 C 
ATOM     19  O   TYR A   9      65.615  81.812  27.946  0.00  0.00    -0.273 OA
ATOM     20  N   ARG A  10      65.543  80.871  25.919  0.00  0.00    -0.297 N 
ATOM     21  H   ARG A  10      65.223  80.067  25.343  0.00  0.00    +0.150 HD
BRANCH  20  22
ATOM     22  CA  ARG A  10      66.123  82.053  25.267  0.00  0.00    +0.149 C 
BRANCH  22  23
ATOM     23  C   ARG A  10      65.387  83.374  25.560  0.00  0.00    +0.241 C 
ATOM     24  N   HIS A  11      64.069  83.306  25.690  0.00  0.00    -0.297 N 
ATOM     25  H   HIS A  11      63.586  82.388  25.611  0.00  0.00    +0.150 HD
ATOM     26  O   ARG A  10      66.007  84.439  25.652  0.00  0.00    -0.273 OA
BRANCH  24  27
ATOM     27  CA  HIS A  11      63.289  84.525  25.946  0.00  0.00    +0.155 C 
BRANCH  27  28
ATOM     28  C   HIS A  11      63.524  85.050  27.358  0.00  0.00    +0.241 C 
ATOM     29  N   ALA A  12      63.497  84.146  28.332  0.00  0.00    -0.297 N 
ATOM     30  H   ALA A  12      63.196  83.176  28.109  0.00  0.00    +0.150 HD
ATOM     31  O   HIS A  11      63.728  86.252  27.549  0.00  0.00    -0.273 OA
BRANCH  29  32
ATOM     32  CA  ALA A  12      63.878  84.471  29.716  0.00  0.00    +0.149 C 
ATOM     33  CB  ALA A  12      63.712  83.251  30.618  0.00  0.00    +0.031 C 
BRANCH  32  34
ATOM     34  C   ALA A  12      65.303  85.036  29.819  0.00  0.00    +0.241 C 
ATOM     35  O   ALA A  12      65.554  86.020  30.540  0.00  0.00    -0.273 OA
ATOM     36  N   ALA A  13      66.242  84.417  29.107  0.00  0.00    -0.297 N 
ATOM     37  H   ALA A  13      65.986  83.593  28.526  0.00  0.00    +0.150 HD
BRANCH  36  38
ATOM     38  CA  ALA A  13      67.630  84.880  29.131  0.00  0.00    +0.149 C 
ATOM     39  CB  ALA A  13      68.522  83.944  28.306  0.00  0.00    +0.031 C 
BRANCH  38  40
ATOM     40  C   ALA A  13      67.744  86.304  28.626  0.00  0.00    +0.241 C 
ATOM     41  O   ALA A  13      68.483  87.130  29.189  0.00  0.00    -0.273 OA
ATOM     42  N   ALA A  14      67.012  86.588  27.556  0.00  0.00    -0.298 N 
ATOM     43  H   ALA A  14      66.412  85.845  27.144  0.00  0.00    +0.150 HD
BRANCH  42  44
ATOM     44  CA  ALA A  14      67.024  87.904  26.944  0.00  0.00    +0.137 C 
ATOM     45  CB  ALA A  14      66.159  87.889  25.662  0.00  0.00    +0.030 C 
BRANCH  44  46
ATOM     46  C   ALA A  14      66.521  88.951  27.957  0.00  0.00    +0.227 C 
ATOM     47  O   ALA A  14      67.122  90.024  28.113  0.00  0.00    -0.286 OA
ENDBRANCH  44  46
ENDBRANCH  42  44
ENDBRANCH  38  40
ENDBRANCH  36  38
ENDBRANCH  32  34
ENDBRANCH  29  32
ENDBRANCH  27  28
BRANCH  27  48
ATOM     48  CB  HIS A  11      61.801  84.282  25.704  0.00  0.00    +0.076 C 
BRANCH  48  49
ATOM     49  CG  HIS A  11      61.499  83.832  24.311  0.00  0.00    +0.082 A 
ATOM     50  ND1 HIS A  11      61.088  82.549  24.021  0.00  0.00    -0.227 NA
ATOM     51  CE1 HIS A  11      60.923  82.428  22.716  0.00  0.00    +0.199 A 
ATOM     52  NE2 HIS A  11      61.212  83.587  22.147  0.00  0.00    -0.221 NA
ATOM     53  CD2 HIS A  11      61.592  84.479  23.125  0.00  0.00    +0.115 A 
ENDBRANCH  48  49
ENDBRANCH  27  48
ENDBRANCH  24  27
ENDBRANCH  22  23
BRANCH  22  54
ATOM     54  CB  ARG A  10      66.218  81.858  23.748  0.00  0.00    +0.033 C 
BRANCH  54  55
ATOM     55  CG  ARG A  10      64.905  81.576  23.061  0.00  0.00    +0.045 C 
BRANCH  55  56
ATOM     56  CD  ARG A  10      65.146  81.251  21.578  0.00  0.00    +0.174 C 
BRANCH  56  57
ATOM     57  NE  ARG A  10      65.184  82.483  20.794  0.00  0.00    -0.265 N 
ATOM     58  HE  ARG A  10      66.016  83.097  20.906  0.00  0.00    +0.259 HD
ATOM     59  CZ  ARG A  10      64.238  82.881  19.949  0.00  0.00    +0.342 C 
ATOM     60  NH2 ARG A  10      63.164  82.132  19.713  0.00  0.00    -0.292 N 
ATOM     61 HH21 ARG A  10      63.053  81.216  20.193  0.00  0.00    +0.255 HD
ATOM     62 HH22 ARG A  10      62.436  82.462  19.048  0.00  0.00    +0.255 HD
ATOM     63  NH1 ARG A  10      64.387  84.032  19.315  0.00  0.00    -0.292 N 
ATOM     64 HH11 ARG A  10      65.235  84.611  19.481  0.00  0.00    +0.255 HD
ATOM     65 HH12 ARG A  10      63.656  84.358  18.651  0.00  0.00    +0.255 HD
ENDBRANCH  56  57
ENDBRANCH  55  56
ENDBRANCH  54  55
ENDBRANCH  22  54
ENDBRANCH  20  22
ENDBRANCH  17  18
BRANCH  17  66
ATOM     66  CB  TYR A   9      66.098  79.018  28.857  0.00  0.00    +0.055 C 
BRANCH  66  67
ATOM     67  CG  TYR A   9      66.389  79.893  30.061  0.00  0.00    -0.020 A 
ATOM     68  CD2 TYR A   9      65.535  79.928  31.144  0.00  0.00    -0.001 A 
ATOM     69  CE2 TYR A   9      65.818  80.713  32.264  0.00  0.00    +0.036 A 
ATOM     70  CZ  TYR A   9      66.964  81.459  32.298  0.00  0.00    +0.134 A 
ATOM     71  CE1 TYR A   9      67.837  81.445  31.237  0.00  0.00    +0.036 A 
ATOM     72  CD1 TYR A   9      67.544  80.664  30.116  0.00  0.00    -0.001 A 
BRANCH  70  73
ATOM     73  OH  TYR A   9      67.245  82.230  33.405  0.00  0.00    -0.506 OA
ATOM     74  HH  TYR A   9      66.520  82.126  34.071  0.00  0.00    +0.292 HD
ENDBRANCH  70  73
ENDBRANCH  66  67
ENDBRANCH  17  66
ENDBRANCH  14  17
ENDBRANCH  12  13
BRANCH  12  75
ATOM     75  CB  SER A   8      62.428  76.324  25.408  0.00  0.00    +0.166 C 
BRANCH  75  76
ATOM     76  OG  SER A   8      62.107  75.666  24.181  0.00  0.00    -0.380 OA
ATOM     77  H   SER A   8      61.387  75.006  24.341  0.00  0.00    +0.211 HD
ENDBRANCH  75  76
ENDBRANCH  12  75
ENDBRANCH   9  12
ENDBRANCH   7   8
BRANCH   1  78
ATOM     78  CA  HIS A   6      68.010  74.892  27.283  0.00  0.00    +0.155 C 
BRANCH  78  81
ATOM     79  C   PHE A   5      69.296  72.872  26.722  0.00  0.00    +0.241 C 
ATOM     80  O   PHE A   5      68.348  72.128  26.900  0.00  0.00    -0.273 OA
ATOM     81  N   HIS A   6      69.230  74.197  26.846  0.00  0.00    -0.297 N 
ATOM     82  H   HIS A   6      70.075  74.762  26.625  0.00  0.00    +0.150 HD
BRANCH  79  83
ATOM     83  CA  PHE A   5      70.628  72.300  26.317  0.00  0.00    +0.153 C 
BRANCH  83  85
ATOM     84  C   ARG A   4      71.705  73.308  24.395  0.00  0.00    +0.241 C 
ATOM     85  N   PHE A   5      71.552  73.241  25.713  0.00  0.00    -0.297 N 
ATOM     86  H   PHE A   5      72.105  73.875  26.324  0.00  0.00    +0.150 HD
ATOM     87  O   ARG A   4      71.005  72.658  23.637  0.00  0.00    -0.273 OA
BRANCH  84  88
ATOM     88  CA  ARG A   4      72.788  74.247  23.848  0.00  0.00    +0.149 C 
BRANCH  88  90
ATOM     89  C   PRO A   3      71.995  76.433  24.665  0.00  0.00    +0.241 C 
ATOM     90  N   ARG A   4      72.939  75.485  24.628  0.00  0.00    -0.297 N 
ATOM     91  H   ARG A   4      73.814  75.629  25.172  0.00  0.00    +0.150 HD
ATOM     92  O   PRO A   3      70.938  76.374  24.008  0.00  0.00    -0.273 OA
BRANCH  89  99
ATOM     93  C   ALA A   2      72.475  76.387  27.755  0.00  0.00    +0.244 C 
ATOM     94  O   ALA A   2      71.397  75.798  27.604  0.00  0.00    -0.273 OA
ATOM     95  N   PRO A   3      72.972  77.276  26.859  0.00  0.00    -0.272 N 
ATOM     96  CD  PRO A   3      74.198  78.093  27.001  0.00  0.00    +0.094 C 
ATOM     97  CG  PRO A   3      73.899  79.308  26.135  0.00  0.00    +0.024 C 
ATOM     98  CB  PRO A   3      73.096  78.728  24.984  0.00  0.00    +0.031 C 
ATOM     99  CA  PRO A   3      72.231  77.623  25.625  0.00  0.00    +0.152 C 
BRANCH  93 100
ATOM    100  CA  ALA A   2      73.326  76.064  28.989  0.00  0.00    +0.149 C 
ATOM    101  CB  ALA A   2      73.213  77.166  30.070  0.00  0.00    +0.031 C 
BRANCH 100 103
ATOM    102  C   PHE A   1      75.050  74.851  27.766  0.00  0.00    +0.239 C 
ATOM    103  N   ALA A   2      74.729  75.781  28.662  0.00  0.00    -0.297 N 
ATOM    104  H   ALA A   2      75.484  76.316  29.138  0.00  0.00    +0.150 HD
ATOM    105  O   PHE A   1      74.208  74.293  27.067  0.00  0.00    -0.274 OA
BRANCH 102 106
ATOM    106  CA  PHE A   1      76.529  74.481  27.661  0.00  0.00    +0.149 C 
BRANCH 106 107
ATOM    107  N   PHE A   1      76.665  73.036  27.876  0.00  0.00    -0.238 NA
ATOM    108  H   PHE A   1      76.777  72.416  27.049  0.00  0.00    +0.142 HD
ENDBRANCH 106 107
BRANCH 106 109
ATOM    109  CB  PHE A   1      77.090  74.810  26.293  0.00  0.00    +0.053 C 
BRANCH 109 110
ATOM    110  CG  PHE A   1      77.202  76.281  25.984  0.00  0.00    -0.020 A 
ATOM    111  CD2 PHE A   1      77.805  77.171  26.875  0.00  0.00    -0.004 A 
ATOM    112  CE2 PHE A   1      77.953  78.530  26.539  0.00  0.00    -0.000 A 
ATOM    113  CZ  PHE A   1      77.512  78.980  25.290  0.00  0.00    -0.000 A 
ATOM    114  CE1 PHE A   1      76.939  78.079  24.392  0.00  0.00    -0.000 A 
ATOM    115  CD1 PHE A   1      76.798  76.747  24.736  0.00  0.00    -0.004 A 
ENDBRANCH 109 110
ENDBRANCH 106 109
ENDBRANCH 102 106
ENDBRANCH 100 103
ENDBRANCH  93 100
ENDBRANCH  89  99
ENDBRANCH  88  90
BRANCH  88 116
ATOM    116  CB  ARG A   4      74.143  73.516  23.716  0.00  0.00    +0.033 C 
BRANCH 116 117
ATOM    117  CG  ARG A   4      74.096  72.187  22.932  0.00  0.00    +0.045 C 
BRANCH 117 118
ATOM    118  CD  ARG A   4      73.634  72.397  21.486  0.00  0.00    +0.174 C 
BRANCH 118 119
ATOM    119  NE  ARG A   4      73.580  71.134  20.728  0.00  0.00    -0.265 N 
ATOM    120  CZ  ARG A   4      72.569  70.261  20.768  0.00  0.00    +0.342 C 
ATOM    121  NH2 ARG A   4      71.509  70.482  21.535  0.00  0.00    -0.292 N 
ATOM    122 HH21 ARG A   4      71.457  71.344  22.115  0.00  0.00    +0.255 HD
ATOM    123 HH22 ARG A   4      70.730  69.794  21.556  0.00  0.00    +0.255 HD
ATOM    124  NH1 ARG A   4      72.616  69.147  20.027  0.00  0.00    -0.292 N 
ATOM    125 HH11 ARG A   4      71.829  68.468  20.058  0.00  0.00    +0.255 HD
ATOM    126 HH12 ARG A   4      73.440  68.961  19.420  0.00  0.00    +0.255 HD
ATOM    127  HE  ARG A   4      74.389  70.905  20.116  0.00  0.00    +0.259 HD
ENDBRANCH 118 119
ENDBRANCH 117 118
ENDBRANCH 116 117
ENDBRANCH  88 116
ENDBRANCH  84  88
ENDBRANCH  83  85
BRANCH  83 128
ATOM    128  CB  PHE A   5      71.294  71.610  27.506  0.00  0.00    +0.055 C 
BRANCH 128 129
ATOM    129  CG  PHE A   5      72.269  70.564  27.098  0.00  0.00    -0.020 A 
ATOM    130  CD2 PHE A   5      71.875  69.224  27.003  0.00  0.00    -0.004 A 
ATOM    131  CE2 PHE A   5      72.790  68.234  26.623  0.00  0.00    -0.000 A 
ATOM    132  CZ  PHE A   5      74.080  68.579  26.298  0.00  0.00    -0.000 A 
ATOM    133  CE1 PHE A   5      74.488  69.926  26.368  0.00  0.00    -0.000 A 
ATOM    134  CD1 PHE A   5      73.578  70.910  26.767  0.00  0.00    -0.004 A 
ENDBRANCH 128 129
ENDBRANCH  83 128
ENDBRANCH  79  83
ENDBRANCH  78  81
BRANCH  78 135
ATOM    135  CB  HIS A   6      68.260  75.590  28.639  0.00  0.00    +0.076 C 
BRANCH 135 136
ATOM    136  CG  HIS A   6      68.602  74.646  29.752  0.00  0.00    +0.082 A 
ATOM    137  ND1 HIS A   6      67.652  73.877  30.389  0.00  0.00    -0.227 NA
ATOM    138  CE1 HIS A   6      68.233  73.154  31.331  0.00  0.00    +0.199 A 
ATOM    139  NE2 HIS A   6      69.529  73.415  31.320  0.00  0.00    -0.221 NA
ATOM    140  CD2 HIS A   6      69.789  74.349  30.342  0.00  0.00    +0.115 A 
ENDBRANCH 135 136
ENDBRANCH  78 135
ENDBRANCH   1  78
TORSDOF 47
REMARK  Name = ../refined-set-2016/3twp/3twp_pocket.pdb
REMARK  99 active torsions:
REMARK  status: ('A' for Active; 'I' for Inactive)
REMARK    1  A    between atoms: _1  and  _3
REMARK    2  A    between atoms: _3  and  _4
REMARK    3  A    between atoms: _3  and  _6
REMARK    4  A    between atoms: _6  and  _7
REMARK    5  A    between atoms: _7  and  _8
REMARK    6  A    between atoms: _10  and  _12
REMARK    7  A    between atoms: _12  and  _13
REMARK    8  A    between atoms: _12  and  _15
REMARK    9  A    between atoms: _15  and  _16
REMARK   10  A    between atoms: _16  and  _17
REMARK   11  A    between atoms: _19  and  _21
REMARK   12  A    between atoms: _21  and  _22
REMARK   13  A    between atoms: _21  and  _24
REMARK   14  A    between atoms: _24  and  _25
REMARK   15  A    between atoms: _30  and  _32
REMARK   16  A    between atoms: _32  and  _33
REMARK   17  A    between atoms: _35  and  _37
REMARK   18  A    between atoms: _37  and  _38
REMARK   19  A    between atoms: _37  and  _40
REMARK   20  A    between atoms: _40  and  _41
REMARK   21  A    between atoms: _46  and  _48
REMARK   22  A    between atoms: _48  and  _49
REMARK   23  A    between atoms: _48  and  _51
REMARK   24  A    between atoms: _51  and  _52
REMARK   25  A    between atoms: _52  and  _53
REMARK   26  A    between atoms: _53  and  _54
REMARK   27  A    between atoms: _63  and  _65
REMARK   28  A    between atoms: _65  and  _66
REMARK   29  A    between atoms: _69  and  _71
REMARK   30  A    between atoms: _71  and  _72
REMARK   31  A    between atoms: _75  and  _77
REMARK   32  A    between atoms: _77  and  _78
REMARK   33  A    between atoms: _77  and  _80
REMARK   34  A    between atoms: _80  and  _81
REMARK   35  A    between atoms: _87  and  _89
REMARK   36  A    between atoms: _89  and  _90
REMARK   37  A    between atoms: _94  and  _95
REMARK   38  A    between atoms: _100  and  _102
REMARK   39  A    between atoms: _102  and  _103
REMARK   40  A    between atoms: _102  and  _105
REMARK   41  A    between atoms: _105  and  _106
REMARK   42  A    between atoms: _106  and  _107
REMARK   43  A    between atoms: _107  and  _108
REMARK   44  A    between atoms: _117  and  _119
REMARK   45  A    between atoms: _119  and  _120
REMARK   46  A    between atoms: _119  and  _122
REMARK   47  A    between atoms: _122  and  _123
REMARK   48  A    between atoms: _129  and  _131
REMARK   49  A    between atoms: _131  and  _132
REMARK   50  A    between atoms: _131  and  _134
REMARK   51  A    between atoms: _134  and  _135
REMARK   52  A    between atoms: _141  and  _142
REMARK   53  A    between atoms: _147  and  _149
REMARK   54  A    between atoms: _149  and  _150
REMARK   55  A    between atoms: _149  and  _152
REMARK   56  A    between atoms: _152  and  _153
REMARK   57  A    between atoms: _155  and  _157
REMARK   58  A    between atoms: _157  and  _158
REMARK   59  A    between atoms: _157  and  _160
REMARK   60  A    between atoms: _160  and  _161
REMARK   61  A    between atoms: _166  and  _167
REMARK   62  A    between atoms: _169  and  _171
REMARK   63  A    between atoms: _171  and  _172
REMARK   64  A    between atoms: _171  and  _174
REMARK   65  A    between atoms: _174  and  _175
REMARK   66  A    between atoms: _175  and  _176
REMARK   67  A    between atoms: _176  and  _177
REMARK   68  A    between atoms: _186  and  _188
REMARK   69  A    between atoms: _188  and  _189
REMARK   70  A    between atoms: _188  and  _191
REMARK   71  A    between atoms: _191  and  _192
REMARK   72  A    between atoms: _197  and  _199
REMARK   73  A    between atoms: _199  and  _200
REMARK   74  A    between atoms: _203  and  _205
REMARK   75  A    between atoms: _205  and  _206
REMARK   76  A    between atoms: _209  and  _211
REMARK   77  A    between atoms: _211  and  _212
REMARK   78  A    between atoms: _215  and  _217
REMARK   79  A    between atoms: _217  and  _218
REMARK   80  A    between atoms: _217  and  _220
REMARK   81  A    between atoms: _220  and  _221
REMARK   82  A    between atoms: _221  and  _222
REMARK   83  A    between atoms: _222  and  _223
REMARK   84  A    between atoms: _232  and  _234
REMARK   85  A    between atoms: _234  and  _235
REMARK   86  A    between atoms: _234  and  _237
REMARK   87  A    between atoms: _237  and  _238
REMARK   88  A    between atoms: _238  and  _239
REMARK   89  A    between atoms: _239  and  _240
REMARK   90  A    between atoms: _249  and  _251
REMARK   91  A    between atoms: _251  and  _252
REMARK   92  A    between atoms: _251  and  _254
REMARK   93  A    between atoms: _254  and  _255
REMARK   94  A    between atoms: _258  and  _260
REMARK   95  A    between atoms: _260  and  _261
REMARK   96  A    between atoms: _263  and  _265
REMARK   97  A    between atoms: _265  and  _266
REMARK   98  A    between atoms: _265  and  _268
REMARK   99  A    between atoms: _268  and  _269
REMARK                            x       y       z     vdW  Elec       q    Type
REMARK                         _______ _______ _______ _____ _____    ______ ____
ROOT
ATOM      1  C   ARG A   1      68.603  89.796  31.909  0.00  0.00    +0.238 C 
ATOM      2  O   ARG A   1      68.987  90.657  32.710  0.00  0.00    -0.274 OA
ATOM      3  N   ARG A   2      69.083  89.696  30.663  0.00  0.00    -0.298 N 
ATOM      4  H   ARG A   2      68.763  88.916  30.054  0.00  0.00    +0.150 HD
ENDROOT
BRANCH   1   5
ATOM      5  CA  ARG A   1      67.532  88.770  32.323  0.00  0.00    +0.145 C 
BRANCH   5   6
ATOM      6  N   ARG A   1      66.519  88.647  31.278  0.00  0.00    -0.238 NA
ATOM      7  H   ARG A   1      66.309  87.714  30.870  0.00  0.00    +0.142 HD
ENDBRANCH   5   6
BRANCH   5   8
ATOM      8  CB  ARG A   1      68.173  87.415  32.627  0.00  0.00    +0.030 C 
BRANCH   8   9
ATOM      9  CG  ARG A   1      69.454  87.552  33.459  0.00  0.00    +0.045 C 
BRANCH   9  10
ATOM     10  CD  ARG A   1      70.091  86.210  33.844  0.00  0.00    +0.174 C 
BRANCH  10  11
ATOM     11  NE  ARG A   1      71.465  86.466  34.309  0.00  0.00    -0.265 N 
ATOM     12  CZ  ARG A   1      72.281  85.549  34.823  0.00  0.00    +0.342 C 
ATOM     13  NH2 ARG A   1      73.515  85.907  35.199  0.00  0.00    -0.292 N 
ATOM     14 HH21 ARG A   1      74.162  85.199  35.602  0.00  0.00    +0.255 HD
ATOM     15 HH22 ARG A   1      73.827  86.893  35.088  0.00  0.00    +0.255 HD
ATOM     16  NH1 ARG A   1      71.868  84.286  34.965  0.00  0.00    -0.292 N 
ATOM     17 HH11 ARG A   1      72.508  83.572  35.367  0.00  0.00    +0.255 HD
ATOM     18 HH12 ARG A   1      70.907  84.017  34.673  0.00  0.00    +0.255 HD
ATOM     19  HE  ARG A   1      71.825  87.438  34.229  0.00  0.00    +0.259 HD
ENDBRANCH  10  11
ENDBRANCH   9  10
ENDBRANCH   8   9
ENDBRANCH   5   8
ENDBRANCH   1   5
BRANCH   3  20
ATOM     20  CA  ARG A   2      70.057  90.671  30.138  0.00  0.00    +0.137 C 
BRANCH  20  21
ATOM     21  C   ARG A   2      69.508  92.096  30.115  0.00  0.00    +0.227 C 
ATOM     22  O   ARG A   2      70.193  93.017  30.530  0.00  0.00    -0.286 OA
ENDBRANCH  20  21
BRANCH  20  23
ATOM     23  CB  ARG A   2      70.541  90.314  28.740  0.00  0.00    +0.031 C 
BRANCH  23  24
ATOM     24  CG  ARG A   2      71.501  89.156  28.702  0.00  0.00    +0.045 C 
BRANCH  24  25
ATOM     25  CD  ARG A   2      72.068  88.946  27.308  0.00  0.00    +0.174 C 
BRANCH  25  26
ATOM     26  NE  ARG A   2      71.061  88.438  26.373  0.00  0.00    -0.265 N 
ATOM     27  CZ  ARG A   2      70.824  87.143  26.140  0.00  0.00    +0.342 C 
ATOM     28  NH2 ARG A   2      71.527  86.187  26.764  0.00  0.00    -0.292 N 
ATOM     29 HH21 ARG A   2      72.271  86.448  27.442  0.00  0.00    +0.255 HD
ATOM     30 HH22 ARG A   2      71.328  85.185  26.570  0.00  0.00    +0.255 HD
ATOM     31  NH1 ARG A   2      69.891  86.803  25.267  0.00  0.00    -0.292 N 
ATOM     32 HH11 ARG A   2      69.698  85.799  25.077  0.00  0.00    +0.255 HD
ATOM     33 HH12 ARG A   2      69.351  87.540  24.770  0.00  0.00    +0.255 HD
ATOM     34  HE  ARG A   2      70.490  89.135  25.853  0.00  0.00    +0.259 HD
ENDBRANCH  25  26
ENDBRANCH  24  25
ENDBRANCH  23  24
ENDBRANCH  20  23
ENDBRANCH   3  20
TORSDOF 12
REMARK  Name = ../refined-set-2016/3twp/3twp_pocket.pdb
REMARK  99 active torsions:
REMARK  status: ('A' for Active; 'I' for Inactive)
REMARK    1  A    between atoms: _1  and  _3
REMARK    2  A    between atoms: _3  and  _4
REMARK    3  A    between atoms: _3  and  _6
REMARK    4  A    between atoms: _6  and  _7
REMARK    5  A    between atoms: _7  and  _8
REMARK    6  A    between atoms: _10  and  _12
REMARK    7  A    between atoms: _12  and  _13
REMARK    8  A    between atoms: _12  and  _15
REMARK    9  A    between atoms: _15  and  _16
REMARK   10  A    between atoms: _16  and  _17
REMARK   11  A    between atoms: _19  and  _21
REMARK   12  A    between atoms: _21  and  _22
REMARK   13  A    between atoms: _21  and  _24
REMARK   14  A    between atoms: _24  and  _25
REMARK   15  A    between atoms: _30  and  _32
REMARK   16  A    between atoms: _32  and  _33
REMARK   17  A    between atoms: _35  and  _37
REMARK   18  A    between atoms: _37  and  _38
REMARK   19  A    between atoms: _37  and  _40
REMARK   20  A    between atoms: _40  and  _41
REMARK   21  A    between atoms: _46  and  _48
REMARK   22  A    between atoms: _48  and  _49
REMARK   23  A    between atoms: _48  and  _51
REMARK   24  A    between atoms: _51  and  _52
REMARK   25  A    between atoms: _52  and  _53
REMARK   26  A    between atoms: _53  and  _54
REMARK   27  A    between atoms: _63  and  _65
REMARK   28  A    between atoms: _65  and  _66
REMARK   29  A    between atoms: _69  and  _71
REMARK   30  A    between atoms: _71  and  _72
REMARK   31  A    between atoms: _75  and  _77
REMARK   32  A    between atoms: _77  and  _78
REMARK   33  A    between atoms: _77  and  _80
REMARK   34  A    between atoms: _80  and  _81
REMARK   35  A    between atoms: _87  and  _89
REMARK   36  A    between atoms: _89  and  _90
REMARK   37  A    between atoms: _94  and  _95
REMARK   38  A    between atoms: _100  and  _102
REMARK   39  A    between atoms: _102  and  _103
REMARK   40  A    between atoms: _102  and  _105
REMARK   41  A    between atoms: _105  and  _106
REMARK   42  A    between atoms: _106  and  _107
REMARK   43  A    between atoms: _107  and  _108
REMARK   44  A    between atoms: _117  and  _119
REMARK   45  A    between atoms: _119  and  _120
REMARK   46  A    between atoms: _119  and  _122
REMARK   47  A    between atoms: _122  and  _123
REMARK   48  A    between atoms: _129  and  _131
REMARK   49  A    between atoms: _131  and  _132
REMARK   50  A    between atoms: _131  and  _134
REMARK   51  A    between atoms: _134  and  _135
REMARK   52  A    between atoms: _141  and  _142
REMARK   53  A    between atoms: _147  and  _149
REMARK   54  A    between atoms: _149  and  _150
REMARK   55  A    between atoms: _149  and  _152
REMARK   56  A    between atoms: _152  and  _153
REMARK   57  A    between atoms: _155  and  _157
REMARK   58  A    between atoms: _157  and  _158
REMARK   59  A    between atoms: _157  and  _160
REMARK   60  A    between atoms: _160  and  _161
REMARK   61  A    between atoms: _166  and  _167
REMARK   62  A    between atoms: _169  and  _171
REMARK   63  A    between atoms: _171  and  _172
REMARK   64  A    between atoms: _171  and  _174
REMARK   65  A    between atoms: _174  and  _175
REMARK   66  A    between atoms: _175  and  _176
REMARK   67  A    between atoms: _176  and  _177
REMARK   68  A    between atoms: _186  and  _188
REMARK   69  A    between atoms: _188  and  _189
REMARK   70  A    between atoms: _188  and  _191
REMARK   71  A    between atoms: _191  and  _192
REMARK   72  A    between atoms: _197  and  _199
REMARK   73  A    between atoms: _199  and  _200
REMARK   74  A    between atoms: _203  and  _205
REMARK   75  A    between atoms: _205  and  _206
REMARK   76  A    between atoms: _209  and  _211
REMARK   77  A    between atoms: _211  and  _212
REMARK   78  A    between atoms: _215  and  _217
REMARK   79  A    between atoms: _217  and  _218
REMARK   80  A    between atoms: _217  and  _220
REMARK   81  A    between atoms: _220  and  _221
REMARK   82  A    between atoms: _221  and  _222
REMARK   83  A    between atoms: _222  and  _223
REMARK   84  A    between atoms: _232  and  _234
REMARK   85  A    between atoms: _234  and  _235
REMARK   86  A    between atoms: _234  and  _237
REMARK   87  A    between atoms: _237  and  _238
REMARK   88  A    between atoms: _238  and  _239
REMARK   89  A    between atoms: _239  and  _240
REMARK   90  A    between atoms: _249  and  _251
REMARK   91  A    between atoms: _251  and  _252
REMARK   92  A    between atoms: _251  and  _254
REMARK   93  A    between atoms: _254  and  _255
REMARK   94  A    between atoms: _258  and  _260
REMARK   95  A    between atoms: _260  and  _261
REMARK   96  A    between atoms: _263  and  _265
REMARK   97  A    between atoms: _265  and  _266
REMARK   98  A    between atoms: _265  and  _268
REMARK   99  A    between atoms: _268  and  _269
REMARK                            x       y       z     vdW  Elec       q    Type
REMARK                         _______ _______ _______ _____ _____    ______ ____
ROOT
ATOM      1  CA  LEU A   1      68.304  78.513  37.821  0.00  0.00    +0.145 C 
ENDROOT
BRANCH   1   2
ATOM      2  C   LEU A   1      69.392  77.693  37.134  0.00  0.00    +0.238 C 
ATOM      3  O   LEU A   1      69.255  76.486  37.033  0.00  0.00    -0.274 OA
ATOM      4  N   GLY A   2      70.461  78.351  36.676  0.00  0.00    -0.297 N 
ATOM      5  H   GLY A   2      70.500  79.386  36.771  0.00  0.00    +0.150 HD
BRANCH   4   6
ATOM      6  CA  GLY A   2      71.581  77.645  36.042  0.00  0.00    +0.163 C 
BRANCH   6   7
ATOM      7  C   GLY A   2      72.110  76.447  36.826  0.00  0.00    +0.229 C 
ATOM      8  O   GLY A   2      72.102  75.336  36.324  0.00  0.00    -0.286 OA
ENDBRANCH   6   7
ENDBRANCH   4   6
ENDBRANCH   1   2
BRANCH   1   9
ATOM      9  N   LEU A   1      68.799  79.650  38.584  0.00  0.00    -0.238 NA
ATOM     10  H   LEU A   1      68.649  80.610  38.213  0.00  0.00    +0.142 HD
ENDBRANCH   1   9
BRANCH   1  11
ATOM     11  CB  LEU A   1      67.227  78.941  36.810  0.00  0.00    +0.026 C 
BRANCH  11  12
ATOM     12  CG  LEU A   1      65.908  79.462  37.425  0.00  0.00    +0.002 C 
ATOM     13  CD2 LEU A   1      65.257  78.418  38.352  0.00  0.00    +0.000 C 
ATOM     14  CD1 LEU A   1      64.943  79.897  36.318  0.00  0.00    +0.000 C 
ENDBRANCH  11  12
ENDBRANCH   1  11
TORSDOF 6
REMARK  Name = ../refined-set-2016/3twp/3twp_pocket.pdb
REMARK  99 active torsions:
REMARK  status: ('A' for Active; 'I' for Inactive)
REMARK    1  A    between atoms: _1  and  _3
REMARK    2  A    between atoms: _3  and  _4
REMARK    3  A    between atoms: _3  and  _6
REMARK    4  A    between atoms: _6  and  _7
REMARK    5  A    between atoms: _7  and  _8
REMARK    6  A    between atoms: _10  and  _12
REMARK    7  A    between atoms: _12  and  _13
REMARK    8  A    between atoms: _12  and  _15
REMARK    9  A    between atoms: _15  and  _16
REMARK   10  A    between atoms: _16  and  _17
REMARK   11  A    between atoms: _19  and  _21
REMARK   12  A    between atoms: _21  and  _22
REMARK   13  A    between atoms: _21  and  _24
REMARK   14  A    between atoms: _24  and  _25
REMARK   15  A    between atoms: _30  and  _32
REMARK   16  A    between atoms: _32  and  _33
REMARK   17  A    between atoms: _35  and  _37
REMARK   18  A    between atoms: _37  and  _38
REMARK   19  A    between atoms: _37  and  _40
REMARK   20  A    between atoms: _40  and  _41
REMARK   21  A    between atoms: _46  and  _48
REMARK   22  A    between atoms: _48  and  _49
REMARK   23  A    between atoms: _48  and  _51
REMARK   24  A    between atoms: _51  and  _52
REMARK   25  A    between atoms: _52  and  _53
REMARK   26  A    between atoms: _53  and  _54
REMARK   27  A    between atoms: _63  and  _65
REMARK   28  A    between atoms: _65  and  _66
REMARK   29  A    between atoms: _69  and  _71
REMARK   30  A    between atoms: _71  and  _72
REMARK   31  A    between atoms: _75  and  _77
REMARK   32  A    between atoms: _77  and  _78
REMARK   33  A    between atoms: _77  and  _80
REMARK   34  A    between atoms: _80  and  _81
REMARK   35  A    between atoms: _87  and  _89
REMARK   36  A    between atoms: _89  and  _90
REMARK   37  A    between atoms: _94  and  _95
REMARK   38  A    between atoms: _100  and  _102
REMARK   39  A    between atoms: _102  and  _103
REMARK   40  A    between atoms: _102  and  _105
REMARK   41  A    between atoms: _105  and  _106
REMARK   42  A    between atoms: _106  and  _107
REMARK   43  A    between atoms: _107  and  _108
REMARK   44  A    between atoms: _117  and  _119
REMARK   45  A    between atoms: _119  and  _120
REMARK   46  A    between atoms: _119  and  _122
REMARK   47  A    between atoms: _122  and  _123
REMARK   48  A    between atoms: _129  and  _131
REMARK   49  A    between atoms: _131  and  _132
REMARK   50  A    between atoms: _131  and  _134
REMARK   51  A    between atoms: _134  and  _135
REMARK   52  A    between atoms: _141  and  _142
REMARK   53  A    between atoms: _147  and  _149
REMARK   54  A    between atoms: _149  and  _150
REMARK   55  A    between atoms: _149  and  _152
REMARK   56  A    between atoms: _152  and  _153
REMARK   57  A    between atoms: _155  and  _157
REMARK   58  A    between atoms: _157  and  _158
REMARK   59  A    between atoms: _157  and  _160
REMARK   60  A    between atoms: _160  and  _161
REMARK   61  A    between atoms: _166  and  _167
REMARK   62  A    between atoms: _169  and  _171
REMARK   63  A    between atoms: _171  and  _172
REMARK   64  A    between atoms: _171  and  _174
REMARK   65  A    between atoms: _174  and  _175
REMARK   66  A    between atoms: _175  and  _176
REMARK   67  A    between atoms: _176  and  _177
REMARK   68  A    between atoms: _186  and  _188
REMARK   69  A    between atoms: _188  and  _189
REMARK   70  A    between atoms: _188  and  _191
REMARK   71  A    between atoms: _191  and  _192
REMARK   72  A    between atoms: _197  and  _199
REMARK   73  A    between atoms: _199  and  _200
REMARK   74  A    between atoms: _203  and  _205
REMARK   75  A    between atoms: _205  and  _206
REMARK   76  A    between atoms: _209  and  _211
REMARK   77  A    between atoms: _211  and  _212
REMARK   78  A    between atoms: _215  and  _217
REMARK   79  A    between atoms: _217  and  _218
REMARK   80  A    between atoms: _217  and  _220
REMARK   81  A    between atoms: _220  and  _221
REMARK   82  A    between atoms: _221  and  _222
REMARK   83  A    between atoms: _222  and  _223
REMARK   84  A    between atoms: _232  and  _234
REMARK   85  A    between atoms: _234  and  _235
REMARK   86  A    between atoms: _234  and  _237
REMARK   87  A    between atoms: _237  and  _238
REMARK   88  A    between atoms: _238  and  _239
REMARK   89  A    between atoms: _239  and  _240
REMARK   90  A    between atoms: _249  and  _251
REMARK   91  A    between atoms: _251  and  _252
REMARK   92  A    between atoms: _251  and  _254
REMARK   93  A    between atoms: _254  and  _255
REMARK   94  A    between atoms: _258  and  _260
REMARK   95  A    between atoms: _260  and  _261
REMARK   96  A    between atoms: _263  and  _265
REMARK   97  A    between atoms: _265  and  _266
REMARK   98  A    between atoms: _265  and  _268
REMARK   99  A    between atoms: _268  and  _269
REMARK                            x       y       z     vdW  Elec       q    Type
REMARK                         _______ _______ _______ _____ _____    ______ ____
ROOT
ATOM      1  CA  THR A   1      69.101  72.862  35.882  0.00  0.00    +0.160 C 
ENDROOT
BRANCH   1   2
ATOM      2  N   THR A   1      69.686  73.452  37.086  0.00  0.00    -0.237 NA
ATOM      3  H   THR A   1      70.504  74.090  37.011  0.00  0.00    +0.142 HD
ENDBRANCH   1   2
BRANCH   1   4
ATOM      4  CB  THR A   1      68.301  73.907  35.077  0.00  0.00    +0.134 C 
ATOM      5  CG2 THR A   1      67.089  74.357  35.864  0.00  0.00    +0.034 C 
BRANCH   4   6
ATOM      6  OG1 THR A   1      69.136  75.041  34.790  0.00  0.00    -0.383 OA
ATOM      7  HG1 THR A   1      69.444  75.446  35.639  0.00  0.00    +0.210 HD
ENDBRANCH   4   6
ENDBRANCH   1   4
BRANCH   1   8
ATOM      8  C   THR A   1      70.123  72.147  34.982  0.00  0.00    +0.227 C 
ATOM      9  O   THR A   1      69.974  72.092  33.749  0.00  0.00    -0.287 OA
ENDBRANCH   1   8
TORSDOF 4
REMARK  Name = ../refined-set-2016/3twp/3twp_pocket.pdb
REMARK  99 active torsions:
REMARK  status: ('A' for Active; 'I' for Inactive)
REMARK    1  A    between atoms: _1  and  _3
REMARK    2  A    between atoms: _3  and  _4
REMARK    3  A    between atoms: _3  and  _6
REMARK    4  A    between atoms: _6  and  _7
REMARK    5  A    between atoms: _7  and  _8
REMARK    6  A    between atoms: _10  and  _12
REMARK    7  A    between atoms: _12  and  _13
REMARK    8  A    between atoms: _12  and  _15
REMARK    9  A    between atoms: _15  and  _16
REMARK   10  A    between atoms: _16  and  _17
REMARK   11  A    between atoms: _19  and  _21
REMARK   12  A    between atoms: _21  and  _22
REMARK   13  A    between atoms: _21  and  _24
REMARK   14  A    between atoms: _24  and  _25
REMARK   15  A    between atoms: _30  and  _32
REMARK   16  A    between atoms: _32  and  _33
REMARK   17  A    between atoms: _35  and  _37
REMARK   18  A    between atoms: _37  and  _38
REMARK   19  A    between atoms: _37  and  _40
REMARK   20  A    between atoms: _40  and  _41
REMARK   21  A    between atoms: _46  and  _48
REMARK   22  A    between atoms: _48  and  _49
REMARK   23  A    between atoms: _48  and  _51
REMARK   24  A    between atoms: _51  and  _52
REMARK   25  A    between atoms: _52  and  _53
REMARK   26  A    between atoms: _53  and  _54
REMARK   27  A    between atoms: _63  and  _65
REMARK   28  A    between atoms: _65  and  _66
REMARK   29  A    between atoms: _69  and  _71
REMARK   30  A    between atoms: _71  and  _72
REMARK   31  A    between atoms: _75  and  _77
REMARK   32  A    between atoms: _77  and  _78
REMARK   33  A    between atoms: _77  and  _80
REMARK   34  A    between atoms: _80  and  _81
REMARK   35  A    between atoms: _87  and  _89
REMARK   36  A    between atoms: _89  and  _90
REMARK   37  A    between atoms: _94  and  _95
REMARK   38  A    between atoms: _100  and  _102
REMARK   39  A    between atoms: _102  and  _103
REMARK   40  A    between atoms: _102  and  _105
REMARK   41  A    between atoms: _105  and  _106
REMARK   42  A    between atoms: _106  and  _107
REMARK   43  A    between atoms: _107  and  _108
REMARK   44  A    between atoms: _117  and  _119
REMARK   45  A    between atoms: _119  and  _120
REMARK   46  A    between atoms: _119  and  _122
REMARK   47  A    between atoms: _122  and  _123
REMARK   48  A    between atoms: _129  and  _131
REMARK   49  A    between atoms: _131  and  _132
REMARK   50  A    between atoms: _131  and  _134
REMARK   51  A    between atoms: _134  and  _135
REMARK   52  A    between atoms: _141  and  _142
REMARK   53  A    between atoms: _147  and  _149
REMARK   54  A    between atoms: _149  and  _150
REMARK   55  A    between atoms: _149  and  _152
REMARK   56  A    between atoms: _152  and  _153
REMARK   57  A    between atoms: _155  and  _157
REMARK   58  A    between atoms: _157  and  _158
REMARK   59  A    between atoms: _157  and  _160
REMARK   60  A    between atoms: _160  and  _161
REMARK   61  A    between atoms: _166  and  _167
REMARK   62  A    between atoms: _169  and  _171
REMARK   63  A    between atoms: _171  and  _172
REMARK   64  A    between atoms: _171  and  _174
REMARK   65  A    between atoms: _174  and  _175
REMARK   66  A    between atoms: _175  and  _176
REMARK   67  A    between atoms: _176  and  _177
REMARK   68  A    between atoms: _186  and  _188
REMARK   69  A    between atoms: _188  and  _189
REMARK   70  A    between atoms: _188  and  _191
REMARK   71  A    between atoms: _191  and  _192
REMARK   72  A    between atoms: _197  and  _199
REMARK   73  A    between atoms: _199  and  _200
REMARK   74  A    between atoms: _203  and  _205
REMARK   75  A    between atoms: _205  and  _206
REMARK   76  A    between atoms: _209  and  _211
REMARK   77  A    between atoms: _211  and  _212
REMARK   78  A    between atoms: _215  and  _217
REMARK   79  A    between atoms: _217  and  _218
REMARK   80  A    between atoms: _217  and  _220
REMARK   81  A    between atoms: _220  and  _221
REMARK   82  A    between atoms: _221  and  _222
REMARK   83  A    between atoms: _222  and  _223
REMARK   84  A    between atoms: _232  and  _234
REMARK   85  A    between atoms: _234  and  _235
REMARK   86  A    between atoms: _234  and  _237
REMARK   87  A    between atoms: _237  and  _238
REMARK   88  A    between atoms: _238  and  _239
REMARK   89  A    between atoms: _239  and  _240
REMARK   90  A    between atoms: _249  and  _251
REMARK   91  A    between atoms: _251  and  _252
REMARK   92  A    between atoms: _251  and  _254
REMARK   93  A    between atoms: _254  and  _255
REMARK   94  A    between atoms: _258  and  _260
REMARK   95  A    between atoms: _260  and  _261
REMARK   96  A    between atoms: _263  and  _265
REMARK   97  A    between atoms: _265  and  _266
REMARK   98  A    between atoms: _265  and  _268
REMARK   99  A    between atoms: _268  and  _269
REMARK                            x       y       z     vdW  Elec       q    Type
REMARK                         _______ _______ _______ _____ _____    ______ ____
ROOT
ATOM      1  O   HOH     1      62.115  81.505  27.620  0.00  0.00    +0.000 OA
ENDROOT
TORSDOF 0
REMARK  Name = ../refined-set-2016/3twp/3twp_pocket.pdb
REMARK  99 active torsions:
REMARK  status: ('A' for Active; 'I' for Inactive)
REMARK    1  A    between atoms: _1  and  _3
REMARK    2  A    between atoms: _3  and  _4
REMARK    3  A    between atoms: _3  and  _6
REMARK    4  A    between atoms: _6  and  _7
REMARK    5  A    between atoms: _7  and  _8
REMARK    6  A    between atoms: _10  and  _12
REMARK    7  A    between atoms: _12  and  _13
REMARK    8  A    between atoms: _12  and  _15
REMARK    9  A    between atoms: _15  and  _16
REMARK   10  A    between atoms: _16  and  _17
REMARK   11  A    between atoms: _19  and  _21
REMARK   12  A    between atoms: _21  and  _22
REMARK   13  A    between atoms: _21  and  _24
REMARK   14  A    between atoms: _24  and  _25
REMARK   15  A    between atoms: _30  and  _32
REMARK   16  A    between atoms: _32  and  _33
REMARK   17  A    between atoms: _35  and  _37
REMARK   18  A    between atoms: _37  and  _38
REMARK   19  A    between atoms: _37  and  _40
REMARK   20  A    between atoms: _40  and  _41
REMARK   21  A    between atoms: _46  and  _48
REMARK   22  A    between atoms: _48  and  _49
REMARK   23  A    between atoms: _48  and  _51
REMARK   24  A    between atoms: _51  and  _52
REMARK   25  A    between atoms: _52  and  _53
REMARK   26  A    between atoms: _53  and  _54
REMARK   27  A    between atoms: _63  and  _65
REMARK   28  A    between atoms: _65  and  _66
REMARK   29  A    between atoms: _69  and  _71
REMARK   30  A    between atoms: _71  and  _72
REMARK   31  A    between atoms: _75  and  _77
REMARK   32  A    between atoms: _77  and  _78
REMARK   33  A    between atoms: _77  and  _80
REMARK   34  A    between atoms: _80  and  _81
REMARK   35  A    between atoms: _87  and  _89
REMARK   36  A    between atoms: _89  and  _90
REMARK   37  A    between atoms: _94  and  _95
REMARK   38  A    between atoms: _100  and  _102
REMARK   39  A    between atoms: _102  and  _103
REMARK   40  A    between atoms: _102  and  _105
REMARK   41  A    between atoms: _105  and  _106
REMARK   42  A    between atoms: _106  and  _107
REMARK   43  A    between atoms: _107  and  _108
REMARK   44  A    between atoms: _117  and  _119
REMARK   45  A    between atoms: _119  and  _120
REMARK   46  A    between atoms: _119  and  _122
REMARK   47  A    between atoms: _122  and  _123
REMARK   48  A    between atoms: _129  and  _131
REMARK   49  A    between atoms: _131  and  _132
REMARK   50  A    between atoms: _131  and  _134
REMARK   51  A    between atoms: _134  and  _135
REMARK   52  A    between atoms: _141  and  _142
REMARK   53  A    between atoms: _147  and  _149
REMARK   54  A    between atoms: _149  and  _150
REMARK   55  A    between atoms: _149  and  _152
REMARK   56  A    between atoms: _152  and  _153
REMARK   57  A    between atoms: _155  and  _157
REMARK   58  A    between atoms: _157  and  _158
REMARK   59  A    between atoms: _157  and  _160
REMARK   60  A    between atoms: _160  and  _161
REMARK   61  A    between atoms: _166  and  _167
REMARK   62  A    between atoms: _169  and  _171
REMARK   63  A    between atoms: _171  and  _172
REMARK   64  A    between atoms: _171  and  _174
REMARK   65  A    between atoms: _174  and  _175
REMARK   66  A    between atoms: _175  and  _176
REMARK   67  A    between atoms: _176  and  _177
REMARK   68  A    between atoms: _186  and  _188
REMARK   69  A    between atoms: _188  and  _189
REMARK   70  A    between atoms: _188  and  _191
REMARK   71  A    between atoms: _191  and  _192
REMARK   72  A    between atoms: _197  and  _199
REMARK   73  A    between atoms: _199  and  _200
REMARK   74  A    between atoms: _203  and  _205
REMARK   75  A    between atoms: _205  and  _206
REMARK   76  A    between atoms: _209  and  _211
REMARK   77  A    between atoms: _211  and  _212
REMARK   78  A    between atoms: _215  and  _217
REMARK   79  A    between atoms: _217  and  _218
REMARK   80  A    between atoms: _217  and  _220
REMARK   81  A    between atoms: _220  and  _221
REMARK   82  A    between atoms: _221  and  _222
REMARK   83  A    between atoms: _222  and  _223
REMARK   84  A    between atoms: _232  and  _234
REMARK   85  A    between atoms: _234  and  _235
REMARK   86  A    between atoms: _234  and  _237
REMARK   87  A    between atoms: _237  and  _238
REMARK   88  A    between atoms: _238  and  _239
REMARK   89  A    between atoms: _239  and  _240
REMARK   90  A    between atoms: _249  and  _251
REMARK   91  A    between atoms: _251  and  _252
REMARK   92  A    between atoms: _251  and  _254
REMARK   93  A    between atoms: _254  and  _255
REMARK   94  A    between atoms: _258  and  _260
REMARK   95  A    between atoms: _260  and  _261
REMARK   96  A    between atoms: _263  and  _265
REMARK   97  A    between atoms: _265  and  _266
REMARK   98  A    between atoms: _265  and  _268
REMARK   99  A    between atoms: _268  and  _269
REMARK                            x       y       z     vdW  Elec       q    Type
REMARK                         _______ _______ _______ _____ _____    ______ ____
ROOT
ATOM      1  O   HOH     1      71.505  83.638  30.936  0.00  0.00    +0.000 OA
ENDROOT
TORSDOF 0
REMARK  Name = ../refined-set-2016/3twp/3twp_pocket.pdb
REMARK  99 active torsions:
REMARK  status: ('A' for Active; 'I' for Inactive)
REMARK    1  A    between atoms: _1  and  _3
REMARK    2  A    between atoms: _3  and  _4
REMARK    3  A    between atoms: _3  and  _6
REMARK    4  A    between atoms: _6  and  _7
REMARK    5  A    between atoms: _7  and  _8
REMARK    6  A    between atoms: _10  and  _12
REMARK    7  A    between atoms: _12  and  _13
REMARK    8  A    between atoms: _12  and  _15
REMARK    9  A    between atoms: _15  and  _16
REMARK   10  A    between atoms: _16  and  _17
REMARK   11  A    between atoms: _19  and  _21
REMARK   12  A    between atoms: _21  and  _22
REMARK   13  A    between atoms: _21  and  _24
REMARK   14  A    between atoms: _24  and  _25
REMARK   15  A    between atoms: _30  and  _32
REMARK   16  A    between atoms: _32  and  _33
REMARK   17  A    between atoms: _35  and  _37
REMARK   18  A    between atoms: _37  and  _38
REMARK   19  A    between atoms: _37  and  _40
REMARK   20  A    between atoms: _40  and  _41
REMARK   21  A    between atoms: _46  and  _48
REMARK   22  A    between atoms: _48  and  _49
REMARK   23  A    between atoms: _48  and  _51
REMARK   24  A    between atoms: _51  and  _52
REMARK   25  A    between atoms: _52  and  _53
REMARK   26  A    between atoms: _53  and  _54
REMARK   27  A    between atoms: _63  and  _65
REMARK   28  A    between atoms: _65  and  _66
REMARK   29  A    between atoms: _69  and  _71
REMARK   30  A    between atoms: _71  and  _72
REMARK   31  A    between atoms: _75  and  _77
REMARK   32  A    between atoms: _77  and  _78
REMARK   33  A    between atoms: _77  and  _80
REMARK   34  A    between atoms: _80  and  _81
REMARK   35  A    between atoms: _87  and  _89
REMARK   36  A    between atoms: _89  and  _90
REMARK   37  A    between atoms: _94  and  _95
REMARK   38  A    between atoms: _100  and  _102
REMARK   39  A    between atoms: _102  and  _103
REMARK   40  A    between atoms: _102  and  _105
REMARK   41  A    between atoms: _105  and  _106
REMARK   42  A    between atoms: _106  and  _107
REMARK   43  A    between atoms: _107  and  _108
REMARK   44  A    between atoms: _117  and  _119
REMARK   45  A    between atoms: _119  and  _120
REMARK   46  A    between atoms: _119  and  _122
REMARK   47  A    between atoms: _122  and  _123
REMARK   48  A    between atoms: _129  and  _131
REMARK   49  A    between atoms: _131  and  _132
REMARK   50  A    between atoms: _131  and  _134
REMARK   51  A    between atoms: _134  and  _135
REMARK   52  A    between atoms: _141  and  _142
REMARK   53  A    between atoms: _147  and  _149
REMARK   54  A    between atoms: _149  and  _150
REMARK   55  A    between atoms: _149  and  _152
REMARK   56  A    between atoms: _152  and  _153
REMARK   57  A    between atoms: _155  and  _157
REMARK   58  A    between atoms: _157  and  _158
REMARK   59  A    between atoms: _157  and  _160
REMARK   60  A    between atoms: _160  and  _161
REMARK   61  A    between atoms: _166  and  _167
REMARK   62  A    between atoms: _169  and  _171
REMARK   63  A    between atoms: _171  and  _172
REMARK   64  A    between atoms: _171  and  _174
REMARK   65  A    between atoms: _174  and  _175
REMARK   66  A    between atoms: _175  and  _176
REMARK   67  A    between atoms: _176  and  _177
REMARK   68  A    between atoms: _186  and  _188
REMARK   69  A    between atoms: _188  and  _189
REMARK   70  A    between atoms: _188  and  _191
REMARK   71  A    between atoms: _191  and  _192
REMARK   72  A    between atoms: _197  and  _199
REMARK   73  A    between atoms: _199  and  _200
REMARK   74  A    between atoms: _203  and  _205
REMARK   75  A    between atoms: _205  and  _206
REMARK   76  A    between atoms: _209  and  _211
REMARK   77  A    between atoms: _211  and  _212
REMARK   78  A    between atoms: _215  and  _217
REMARK   79  A    between atoms: _217  and  _218
REMARK   80  A    between atoms: _217  and  _220
REMARK   81  A    between atoms: _220  and  _221
REMARK   82  A    between atoms: _221  and  _222
REMARK   83  A    between atoms: _222  and  _223
REMARK   84  A    between atoms: _232  and  _234
REMARK   85  A    between atoms: _234  and  _235
REMARK   86  A    between atoms: _234  and  _237
REMARK   87  A    between atoms: _237  and  _238
REMARK   88  A    between atoms: _238  and  _239
REMARK   89  A    between atoms: _239  and  _240
REMARK   90  A    between atoms: _249  and  _251
REMARK   91  A    between atoms: _251  and  _252
REMARK   92  A    between atoms: _251  and  _254
REMARK   93  A    between atoms: _254  and  _255
REMARK   94  A    between atoms: _258  and  _260
REMARK   95  A    between atoms: _260  and  _261
REMARK   96  A    between atoms: _263  and  _265
REMARK   97  A    between atoms: _265  and  _266
REMARK   98  A    between atoms: _265  and  _268
REMARK   99  A    between atoms: _268  and  _269
REMARK                            x       y       z     vdW  Elec       q    Type
REMARK                         _______ _______ _______ _____ _____    ______ ____
ROOT
ATOM      1  O   HOH     1      74.609  80.802  34.811  0.00  0.00    +0.000 OA
ENDROOT
TORSDOF 0
REMARK  Name = ../refined-set-2016/3twp/3twp_pocket.pdb
REMARK  99 active torsions:
REMARK  status: ('A' for Active; 'I' for Inactive)
REMARK    1  A    between atoms: _1  and  _3
REMARK    2  A    between atoms: _3  and  _4
REMARK    3  A    between atoms: _3  and  _6
REMARK    4  A    between atoms: _6  and  _7
REMARK    5  A    between atoms: _7  and  _8
REMARK    6  A    between atoms: _10  and  _12
REMARK    7  A    between atoms: _12  and  _13
REMARK    8  A    between atoms: _12  and  _15
REMARK    9  A    between atoms: _15  and  _16
REMARK   10  A    between atoms: _16  and  _17
REMARK   11  A    between atoms: _19  and  _21
REMARK   12  A    between atoms: _21  and  _22
REMARK   13  A    between atoms: _21  and  _24
REMARK   14  A    between atoms: _24  and  _25
REMARK   15  A    between atoms: _30  and  _32
REMARK   16  A    between atoms: _32  and  _33
REMARK   17  A    between atoms: _35  and  _37
REMARK   18  A    between atoms: _37  and  _38
REMARK   19  A    between atoms: _37  and  _40
REMARK   20  A    between atoms: _40  and  _41
REMARK   21  A    between atoms: _46  and  _48
REMARK   22  A    between atoms: _48  and  _49
REMARK   23  A    between atoms: _48  and  _51
REMARK   24  A    between atoms: _51  and  _52
REMARK   25  A    between atoms: _52  and  _53
REMARK   26  A    between atoms: _53  and  _54
REMARK   27  A    between atoms: _63  and  _65
REMARK   28  A    between atoms: _65  and  _66
REMARK   29  A    between atoms: _69  and  _71
REMARK   30  A    between atoms: _71  and  _72
REMARK   31  A    between atoms: _75  and  _77
REMARK   32  A    between atoms: _77  and  _78
REMARK   33  A    between atoms: _77  and  _80
REMARK   34  A    between atoms: _80  and  _81
REMARK   35  A    between atoms: _87  and  _89
REMARK   36  A    between atoms: _89  and  _90
REMARK   37  A    between atoms: _94  and  _95
REMARK   38  A    between atoms: _100  and  _102
REMARK   39  A    between atoms: _102  and  _103
REMARK   40  A    between atoms: _102  and  _105
REMARK   41  A    between atoms: _105  and  _106
REMARK   42  A    between atoms: _106  and  _107
REMARK   43  A    between atoms: _107  and  _108
REMARK   44  A    between atoms: _117  and  _119
REMARK   45  A    between atoms: _119  and  _120
REMARK   46  A    between atoms: _119  and  _122
REMARK   47  A    between atoms: _122  and  _123
REMARK   48  A    between atoms: _129  and  _131
REMARK   49  A    between atoms: _131  and  _132
REMARK   50  A    between atoms: _131  and  _134
REMARK   51  A    between atoms: _134  and  _135
REMARK   52  A    between atoms: _141  and  _142
REMARK   53  A    between atoms: _147  and  _149
REMARK   54  A    between atoms: _149  and  _150
REMARK   55  A    between atoms: _149  and  _152
REMARK   56  A    between atoms: _152  and  _153
REMARK   57  A    between atoms: _155  and  _157
REMARK   58  A    between atoms: _157  and  _158
REMARK   59  A    between atoms: _157  and  _160
REMARK   60  A    between atoms: _160  and  _161
REMARK   61  A    between atoms: _166  and  _167
REMARK   62  A    between atoms: _169  and  _171
REMARK   63  A    between atoms: _171  and  _172
REMARK   64  A    between atoms: _171  and  _174
REMARK   65  A    between atoms: _174  and  _175
REMARK   66  A    between atoms: _175  and  _176
REMARK   67  A    between atoms: _176  and  _177
REMARK   68  A    between atoms: _186  and  _188
REMARK   69  A    between atoms: _188  and  _189
REMARK   70  A    between atoms: _188  and  _191
REMARK   71  A    between atoms: _191  and  _192
REMARK   72  A    between atoms: _197  and  _199
REMARK   73  A    between atoms: _199  and  _200
REMARK   74  A    between atoms: _203  and  _205
REMARK   75  A    between atoms: _205  and  _206
REMARK   76  A    between atoms: _209  and  _211
REMARK   77  A    between atoms: _211  and  _212
REMARK   78  A    between atoms: _215  and  _217
REMARK   79  A    between atoms: _217  and  _218
REMARK   80  A    between atoms: _217  and  _220
REMARK   81  A    between atoms: _220  and  _221
REMARK   82  A    between atoms: _221  and  _222
REMARK   83  A    between atoms: _222  and  _223
REMARK   84  A    between atoms: _232  and  _234
REMARK   85  A    between atoms: _234  and  _235
REMARK   86  A    between atoms: _234  and  _237
REMARK   87  A    between atoms: _237  and  _238
REMARK   88  A    between atoms: _238  and  _239
REMARK   89  A    between atoms: _239  and  _240
REMARK   90  A    between atoms: _249  and  _251
REMARK   91  A    between atoms: _251  and  _252
REMARK   92  A    between atoms: _251  and  _254
REMARK   93  A    between atoms: _254  and  _255
REMARK   94  A    between atoms: _258  and  _260
REMARK   95  A    between atoms: _260  and  _261
REMARK   96  A    between atoms: _263  and  _265
REMARK   97  A    between atoms: _265  and  _266
REMARK   98  A    between atoms: _265  and  _268
REMARK   99  A    between atoms: _268  and  _269
REMARK                            x       y       z     vdW  Elec       q    Type
REMARK                         _______ _______ _______ _____ _____    ______ ____
ROOT
ATOM      1  O   HOH     1      65.123  73.859  29.087  0.00  0.00    +0.000 OA
ENDROOT
TORSDOF 0
REMARK  Name = ../refined-set-2016/3twp/3twp_pocket.pdb
REMARK  99 active torsions:
REMARK  status: ('A' for Active; 'I' for Inactive)
REMARK    1  A    between atoms: _1  and  _3
REMARK    2  A    between atoms: _3  and  _4
REMARK    3  A    between atoms: _3  and  _6
REMARK    4  A    between atoms: _6  and  _7
REMARK    5  A    between atoms: _7  and  _8
REMARK    6  A    between atoms: _10  and  _12
REMARK    7  A    between atoms: _12  and  _13
REMARK    8  A    between atoms: _12  and  _15
REMARK    9  A    between atoms: _15  and  _16
REMARK   10  A    between atoms: _16  and  _17
REMARK   11  A    between atoms: _19  and  _21
REMARK   12  A    between atoms: _21  and  _22
REMARK   13  A    between atoms: _21  and  _24
REMARK   14  A    between atoms: _24  and  _25
REMARK   15  A    between atoms: _30  and  _32
REMARK   16  A    between atoms: _32  and  _33
REMARK   17  A    between atoms: _35  and  _37
REMARK   18  A    between atoms: _37  and  _38
REMARK   19  A    between atoms: _37  and  _40
REMARK   20  A    between atoms: _40  and  _41
REMARK   21  A    between atoms: _46  and  _48
REMARK   22  A    between atoms: _48  and  _49
REMARK   23  A    between atoms: _48  and  _51
REMARK   24  A    between atoms: _51  and  _52
REMARK   25  A    between atoms: _52  and  _53
REMARK   26  A    between atoms: _53  and  _54
REMARK   27  A    between atoms: _63  and  _65
REMARK   28  A    between atoms: _65  and  _66
REMARK   29  A    between atoms: _69  and  _71
REMARK   30  A    between atoms: _71  and  _72
REMARK   31  A    between atoms: _75  and  _77
REMARK   32  A    between atoms: _77  and  _78
REMARK   33  A    between atoms: _77  and  _80
REMARK   34  A    between atoms: _80  and  _81
REMARK   35  A    between atoms: _87  and  _89
REMARK   36  A    between atoms: _89  and  _90
REMARK   37  A    between atoms: _94  and  _95
REMARK   38  A    between atoms: _100  and  _102
REMARK   39  A    between atoms: _102  and  _103
REMARK   40  A    between atoms: _102  and  _105
REMARK   41  A    between atoms: _105  and  _106
REMARK   42  A    between atoms: _106  and  _107
REMARK   43  A    between atoms: _107  and  _108
REMARK   44  A    between atoms: _117  and  _119
REMARK   45  A    between atoms: _119  and  _120
REMARK   46  A    between atoms: _119  and  _122
REMARK   47  A    between atoms: _122  and  _123
REMARK   48  A    between atoms: _129  and  _131
REMARK   49  A    between atoms: _131  and  _132
REMARK   50  A    between atoms: _131  and  _134
REMARK   51  A    between atoms: _134  and  _135
REMARK   52  A    between atoms: _141  and  _142
REMARK   53  A    between atoms: _147  and  _149
REMARK   54  A    between atoms: _149  and  _150
REMARK   55  A    between atoms: _149  and  _152
REMARK   56  A    between atoms: _152  and  _153
REMARK   57  A    between atoms: _155  and  _157
REMARK   58  A    between atoms: _157  and  _158
REMARK   59  A    between atoms: _157  and  _160
REMARK   60  A    between atoms: _160  and  _161
REMARK   61  A    between atoms: _166  and  _167
REMARK   62  A    between atoms: _169  and  _171
REMARK   63  A    between atoms: _171  and  _172
REMARK   64  A    between atoms: _171  and  _174
REMARK   65  A    between atoms: _174  and  _175
REMARK   66  A    between atoms: _175  and  _176
REMARK   67  A    between atoms: _176  and  _177
REMARK   68  A    between atoms: _186  and  _188
REMARK   69  A    between atoms: _188  and  _189
REMARK   70  A    between atoms: _188  and  _191
REMARK   71  A    between atoms: _191  and  _192
REMARK   72  A    between atoms: _197  and  _199
REMARK   73  A    between atoms: _199  and  _200
REMARK   74  A    between atoms: _203  and  _205
REMARK   75  A    between atoms: _205  and  _206
REMARK   76  A    between atoms: _209  and  _211
REMARK   77  A    between atoms: _211  and  _212
REMARK   78  A    between atoms: _215  and  _217
REMARK   79  A    between atoms: _217  and  _218
REMARK   80  A    between atoms: _217  and  _220
REMARK   81  A    between atoms: _220  and  _221
REMARK   82  A    between atoms: _221  and  _222
REMARK   83  A    between atoms: _222  and  _223
REMARK   84  A    between atoms: _232  and  _234
REMARK   85  A    between atoms: _234  and  _235
REMARK   86  A    between atoms: _234  and  _237
REMARK   87  A    between atoms: _237  and  _238
REMARK   88  A    between atoms: _238  and  _239
REMARK   89  A    between atoms: _239  and  _240
REMARK   90  A    between atoms: _249  and  _251
REMARK   91  A    between atoms: _251  and  _252
REMARK   92  A    between atoms: _251  and  _254
REMARK   93  A    between atoms: _254  and  _255
REMARK   94  A    between atoms: _258  and  _260
REMARK   95  A    between atoms: _260  and  _261
REMARK   96  A    between atoms: _263  and  _265
REMARK   97  A    between atoms: _265  and  _266
REMARK   98  A    between atoms: _265  and  _268
REMARK   99  A    between atoms: _268  and  _269
REMARK                            x       y       z     vdW  Elec       q    Type
REMARK                         _______ _______ _______ _____ _____    ______ ____
ROOT
ATOM      1  O   HOH     1      64.723  74.272  26.646  0.00  0.00    +0.000 OA
ENDROOT
TORSDOF 0
REMARK  Name = ../refined-set-2016/3twp/3twp_pocket.pdb
REMARK  99 active torsions:
REMARK  status: ('A' for Active; 'I' for Inactive)
REMARK    1  A    between atoms: _1  and  _3
REMARK    2  A    between atoms: _3  and  _4
REMARK    3  A    between atoms: _3  and  _6
REMARK    4  A    between atoms: _6  and  _7
REMARK    5  A    between atoms: _7  and  _8
REMARK    6  A    between atoms: _10  and  _12
REMARK    7  A    between atoms: _12  and  _13
REMARK    8  A    between atoms: _12  and  _15
REMARK    9  A    between atoms: _15  and  _16
REMARK   10  A    between atoms: _16  and  _17
REMARK   11  A    between atoms: _19  and  _21
REMARK   12  A    between atoms: _21  and  _22
REMARK   13  A    between atoms: _21  and  _24
REMARK   14  A    between atoms: _24  and  _25
REMARK   15  A    between atoms: _30  and  _32
REMARK   16  A    between atoms: _32  and  _33
REMARK   17  A    between atoms: _35  and  _37
REMARK   18  A    between atoms: _37  and  _38
REMARK   19  A    between atoms: _37  and  _40
REMARK   20  A    between atoms: _40  and  _41
REMARK   21  A    between atoms: _46  and  _48
REMARK   22  A    between atoms: _48  and  _49
REMARK   23  A    between atoms: _48  and  _51
REMARK   24  A    between atoms: _51  and  _52
REMARK   25  A    between atoms: _52  and  _53
REMARK   26  A    between atoms: _53  and  _54
REMARK   27  A    between atoms: _63  and  _65
REMARK   28  A    between atoms: _65  and  _66
REMARK   29  A    between atoms: _69  and  _71
REMARK   30  A    between atoms: _71  and  _72
REMARK   31  A    between atoms: _75  and  _77
REMARK   32  A    between atoms: _77  and  _78
REMARK   33  A    between atoms: _77  and  _80
REMARK   34  A    between atoms: _80  and  _81
REMARK   35  A    between atoms: _87  and  _89
REMARK   36  A    between atoms: _89  and  _90
REMARK   37  A    between atoms: _94  and  _95
REMARK   38  A    between atoms: _100  and  _102
REMARK   39  A    between atoms: _102  and  _103
REMARK   40  A    between atoms: _102  and  _105
REMARK   41  A    between atoms: _105  and  _106
REMARK   42  A    between atoms: _106  and  _107
REMARK   43  A    between atoms: _107  and  _108
REMARK   44  A    between atoms: _117  and  _119
REMARK   45  A    between atoms: _119  and  _120
REMARK   46  A    between atoms: _119  and  _122
REMARK   47  A    between atoms: _122  and  _123
REMARK   48  A    between atoms: _129  and  _131
REMARK   49  A    between atoms: _131  and  _132
REMARK   50  A    between atoms: _131  and  _134
REMARK   51  A    between atoms: _134  and  _135
REMARK   52  A    between atoms: _141  and  _142
REMARK   53  A    between atoms: _147  and  _149
REMARK   54  A    between atoms: _149  and  _150
REMARK   55  A    between atoms: _149  and  _152
REMARK   56  A    between atoms: _152  and  _153
REMARK   57  A    between atoms: _155  and  _157
REMARK   58  A    between atoms: _157  and  _158
REMARK   59  A    between atoms: _157  and  _160
REMARK   60  A    between atoms: _160  and  _161
REMARK   61  A    between atoms: _166  and  _167
REMARK   62  A    between atoms: _169  and  _171
REMARK   63  A    between atoms: _171  and  _172
REMARK   64  A    between atoms: _171  and  _174
REMARK   65  A    between atoms: _174  and  _175
REMARK   66  A    between atoms: _175  and  _176
REMARK   67  A    between atoms: _176  and  _177
REMARK   68  A    between atoms: _186  and  _188
REMARK   69  A    between atoms: _188  and  _189
REMARK   70  A    between atoms: _188  and  _191
REMARK   71  A    between atoms: _191  and  _192
REMARK   72  A    between atoms: _197  and  _199
REMARK   73  A    between atoms: _199  and  _200
REMARK   74  A    between atoms: _203  and  _205
REMARK   75  A    between atoms: _205  and  _206
REMARK   76  A    between atoms: _209  and  _211
REMARK   77  A    between atoms: _211  and  _212
REMARK   78  A    between atoms: _215  and  _217
REMARK   79  A    between atoms: _217  and  _218
REMARK   80  A    between atoms: _217  and  _220
REMARK   81  A    between atoms: _220  and  _221
REMARK   82  A    between atoms: _221  and  _222
REMARK   83  A    between atoms: _222  and  _223
REMARK   84  A    between atoms: _232  and  _234
REMARK   85  A    between atoms: _234  and  _235
REMARK   86  A    between atoms: _234  and  _237
REMARK   87  A    between atoms: _237  and  _238
REMARK   88  A    between atoms: _238  and  _239
REMARK   89  A    between atoms: _239  and  _240
REMARK   90  A    between atoms: _249  and  _251
REMARK   91  A    between atoms: _251  and  _252
REMARK   92  A    between atoms: _251  and  _254
REMARK   93  A    between atoms: _254  and  _255
REMARK   94  A    between atoms: _258  and  _260
REMARK   95  A    between atoms: _260  and  _261
REMARK   96  A    between atoms: _263  and  _265
REMARK   97  A    between atoms: _265  and  _266
REMARK   98  A    between atoms: _265  and  _268
REMARK   99  A    between atoms: _268  and  _269
REMARK                            x       y       z     vdW  Elec       q    Type
REMARK                         _______ _______ _______ _____ _____    ______ ____
ROOT
ATOM      1  O   HOH     1      70.698  81.027  36.073  0.00  0.00    +0.000 OA
ENDROOT
TORSDOF 0
REMARK  Name = ../refined-set-2016/3twp/3twp_pocket.pdb
REMARK  99 active torsions:
REMARK  status: ('A' for Active; 'I' for Inactive)
REMARK    1  A    between atoms: _1  and  _3
REMARK    2  A    between atoms: _3  and  _4
REMARK    3  A    between atoms: _3  and  _6
REMARK    4  A    between atoms: _6  and  _7
REMARK    5  A    between atoms: _7  and  _8
REMARK    6  A    between atoms: _10  and  _12
REMARK    7  A    between atoms: _12  and  _13
REMARK    8  A    between atoms: _12  and  _15
REMARK    9  A    between atoms: _15  and  _16
REMARK   10  A    between atoms: _16  and  _17
REMARK   11  A    between atoms: _19  and  _21
REMARK   12  A    between atoms: _21  and  _22
REMARK   13  A    between atoms: _21  and  _24
REMARK   14  A    between atoms: _24  and  _25
REMARK   15  A    between atoms: _30  and  _32
REMARK   16  A    between atoms: _32  and  _33
REMARK   17  A    between atoms: _35  and  _37
REMARK   18  A    between atoms: _37  and  _38
REMARK   19  A    between atoms: _37  and  _40
REMARK   20  A    between atoms: _40  and  _41
REMARK   21  A    between atoms: _46  and  _48
REMARK   22  A    between atoms: _48  and  _49
REMARK   23  A    between atoms: _48  and  _51
REMARK   24  A    between atoms: _51  and  _52
REMARK   25  A    between atoms: _52  and  _53
REMARK   26  A    between atoms: _53  and  _54
REMARK   27  A    between atoms: _63  and  _65
REMARK   28  A    between atoms: _65  and  _66
REMARK   29  A    between atoms: _69  and  _71
REMARK   30  A    between atoms: _71  and  _72
REMARK   31  A    between atoms: _75  and  _77
REMARK   32  A    between atoms: _77  and  _78
REMARK   33  A    between atoms: _77  and  _80
REMARK   34  A    between atoms: _80  and  _81
REMARK   35  A    between atoms: _87  and  _89
REMARK   36  A    between atoms: _89  and  _90
REMARK   37  A    between atoms: _94  and  _95
REMARK   38  A    between atoms: _100  and  _102
REMARK   39  A    between atoms: _102  and  _103
REMARK   40  A    between atoms: _102  and  _105
REMARK   41  A    between atoms: _105  and  _106
REMARK   42  A    between atoms: _106  and  _107
REMARK   43  A    between atoms: _107  and  _108
REMARK   44  A    between atoms: _117  and  _119
REMARK   45  A    between atoms: _119  and  _120
REMARK   46  A    between atoms: _119  and  _122
REMARK   47  A    between atoms: _122  and  _123
REMARK   48  A    between atoms: _129  and  _131
REMARK   49  A    between atoms: _131  and  _132
REMARK   50  A    between atoms: _131  and  _134
REMARK   51  A    between atoms: _134  and  _135
REMARK   52  A    between atoms: _141  and  _142
REMARK   53  A    between atoms: _147  and  _149
REMARK   54  A    between atoms: _149  and  _150
REMARK   55  A    between atoms: _149  and  _152
REMARK   56  A    between atoms: _152  and  _153
REMARK   57  A    between atoms: _155  and  _157
REMARK   58  A    between atoms: _157  and  _158
REMARK   59  A    between atoms: _157  and  _160
REMARK   60  A    between atoms: _160  and  _161
REMARK   61  A    between atoms: _166  and  _167
REMARK   62  A    between atoms: _169  and  _171
REMARK   63  A    between atoms: _171  and  _172
REMARK   64  A    between atoms: _171  and  _174
REMARK   65  A    between atoms: _174  and  _175
REMARK   66  A    between atoms: _175  and  _176
REMARK   67  A    between atoms: _176  and  _177
REMARK   68  A    between atoms: _186  and  _188
REMARK   69  A    between atoms: _188  and  _189
REMARK   70  A    between atoms: _188  and  _191
REMARK   71  A    between atoms: _191  and  _192
REMARK   72  A    between atoms: _197  and  _199
REMARK   73  A    between atoms: _199  and  _200
REMARK   74  A    between atoms: _203  and  _205
REMARK   75  A    between atoms: _205  and  _206
REMARK   76  A    between atoms: _209  and  _211
REMARK   77  A    between atoms: _211  and  _212
REMARK   78  A    between atoms: _215  and  _217
REMARK   79  A    between atoms: _217  and  _218
REMARK   80  A    between atoms: _217  and  _220
REMARK   81  A    between atoms: _220  and  _221
REMARK   82  A    between atoms: _221  and  _222
REMARK   83  A    between atoms: _222  and  _223
REMARK   84  A    between atoms: _232  and  _234
REMARK   85  A    between atoms: _234  and  _235
REMARK   86  A    between atoms: _234  and  _237
REMARK   87  A    between atoms: _237  and  _238
REMARK   88  A    between atoms: _238  and  _239
REMARK   89  A    between atoms: _239  and  _240
REMARK   90  A    between atoms: _249  and  _251
REMARK   91  A    between atoms: _251  and  _252
REMARK   92  A    between atoms: _251  and  _254
REMARK   93  A    between atoms: _254  and  _255
REMARK   94  A    between atoms: _258  and  _260
REMARK   95  A    between atoms: _260  and  _261
REMARK   96  A    between atoms: _263  and  _265
REMARK   97  A    between atoms: _265  and  _266
REMARK   98  A    between atoms: _265  and  _268
REMARK   99  A    between atoms: _268  and  _269
REMARK                            x       y       z     vdW  Elec       q    Type
REMARK                         _______ _______ _______ _____ _____    ______ ____
ROOT
ATOM      1  O   HOH     1      70.842  86.272  30.253  0.00  0.00    +0.000 OA
ENDROOT
TORSDOF 0
REMARK  Name = ../refined-set-2016/3twp/3twp_pocket.pdb
REMARK  99 active torsions:
REMARK  status: ('A' for Active; 'I' for Inactive)
REMARK    1  A    between atoms: _1  and  _3
REMARK    2  A    between atoms: _3  and  _4
REMARK    3  A    between atoms: _3  and  _6
REMARK    4  A    between atoms: _6  and  _7
REMARK    5  A    between atoms: _7  and  _8
REMARK    6  A    between atoms: _10  and  _12
REMARK    7  A    between atoms: _12  and  _13
REMARK    8  A    between atoms: _12  and  _15
REMARK    9  A    between atoms: _15  and  _16
REMARK   10  A    between atoms: _16  and  _17
REMARK   11  A    between atoms: _19  and  _21
REMARK   12  A    between atoms: _21  and  _22
REMARK   13  A    between atoms: _21  and  _24
REMARK   14  A    between atoms: _24  and  _25
REMARK   15  A    between atoms: _30  and  _32
REMARK   16  A    between atoms: _32  and  _33
REMARK   17  A    between atoms: _35  and  _37
REMARK   18  A    between atoms: _37  and  _38
REMARK   19  A    between atoms: _37  and  _40
REMARK   20  A    between atoms: _40  and  _41
REMARK   21  A    between atoms: _46  and  _48
REMARK   22  A    between atoms: _48  and  _49
REMARK   23  A    between atoms: _48  and  _51
REMARK   24  A    between atoms: _51  and  _52
REMARK   25  A    between atoms: _52  and  _53
REMARK   26  A    between atoms: _53  and  _54
REMARK   27  A    between atoms: _63  and  _65
REMARK   28  A    between atoms: _65  and  _66
REMARK   29  A    between atoms: _69  and  _71
REMARK   30  A    between atoms: _71  and  _72
REMARK   31  A    between atoms: _75  and  _77
REMARK   32  A    between atoms: _77  and  _78
REMARK   33  A    between atoms: _77  and  _80
REMARK   34  A    between atoms: _80  and  _81
REMARK   35  A    between atoms: _87  and  _89
REMARK   36  A    between atoms: _89  and  _90
REMARK   37  A    between atoms: _94  and  _95
REMARK   38  A    between atoms: _100  and  _102
REMARK   39  A    between atoms: _102  and  _103
REMARK   40  A    between atoms: _102  and  _105
REMARK   41  A    between atoms: _105  and  _106
REMARK   42  A    between atoms: _106  and  _107
REMARK   43  A    between atoms: _107  and  _108
REMARK   44  A    between atoms: _117  and  _119
REMARK   45  A    between atoms: _119  and  _120
REMARK   46  A    between atoms: _119  and  _122
REMARK   47  A    between atoms: _122  and  _123
REMARK   48  A    between atoms: _129  and  _131
REMARK   49  A    between atoms: _131  and  _132
REMARK   50  A    between atoms: _131  and  _134
REMARK   51  A    between atoms: _134  and  _135
REMARK   52  A    between atoms: _141  and  _142
REMARK   53  A    between atoms: _147  and  _149
REMARK   54  A    between atoms: _149  and  _150
REMARK   55  A    between atoms: _149  and  _152
REMARK   56  A    between atoms: _152  and  _153
REMARK   57  A    between atoms: _155  and  _157
REMARK   58  A    between atoms: _157  and  _158
REMARK   59  A    between atoms: _157  and  _160
REMARK   60  A    between atoms: _160  and  _161
REMARK   61  A    between atoms: _166  and  _167
REMARK   62  A    between atoms: _169  and  _171
REMARK   63  A    between atoms: _171  and  _172
REMARK   64  A    between atoms: _171  and  _174
REMARK   65  A    between atoms: _174  and  _175
REMARK   66  A    between atoms: _175  and  _176
REMARK   67  A    between atoms: _176  and  _177
REMARK   68  A    between atoms: _186  and  _188
REMARK   69  A    between atoms: _188  and  _189
REMARK   70  A    between atoms: _188  and  _191
REMARK   71  A    between atoms: _191  and  _192
REMARK   72  A    between atoms: _197  and  _199
REMARK   73  A    between atoms: _199  and  _200
REMARK   74  A    between atoms: _203  and  _205
REMARK   75  A    between atoms: _205  and  _206
REMARK   76  A    between atoms: _209  and  _211
REMARK   77  A    between atoms: _211  and  _212
REMARK   78  A    between atoms: _215  and  _217
REMARK   79  A    between atoms: _217  and  _218
REMARK   80  A    between atoms: _217  and  _220
REMARK   81  A    between atoms: _220  and  _221
REMARK   82  A    between atoms: _221  and  _222
REMARK   83  A    between atoms: _222  and  _223
REMARK   84  A    between atoms: _232  and  _234
REMARK   85  A    between atoms: _234  and  _235
REMARK   86  A    between atoms: _234  and  _237
REMARK   87  A    between atoms: _237  and  _238
REMARK   88  A    between atoms: _238  and  _239
REMARK   89  A    between atoms: _239  and  _240
REMARK   90  A    between atoms: _249  and  _251
REMARK   91  A    between atoms: _251  and  _252
REMARK   92  A    between atoms: _251  and  _254
REMARK   93  A    between atoms: _254  and  _255
REMARK   94  A    between atoms: _258  and  _260
REMARK   95  A    between atoms: _260  and  _261
REMARK   96  A    between atoms: _263  and  _265
REMARK   97  A    between atoms: _265  and  _266
REMARK   98  A    between atoms: _265  and  _268
REMARK   99  A    between atoms: _268  and  _269
REMARK                            x       y       z     vdW  Elec       q    Type
REMARK                         _______ _______ _______ _____ _____    ______ ____
ROOT
ATOM      1  O   HOH     1      76.201  82.936  33.369  0.00  0.00    +0.000 OA
ENDROOT
TORSDOF 0
REMARK  Name = ../refined-set-2016/3twp/3twp_pocket.pdb
REMARK  99 active torsions:
REMARK  status: ('A' for Active; 'I' for Inactive)
REMARK    1  A    between atoms: _1  and  _3
REMARK    2  A    between atoms: _3  and  _4
REMARK    3  A    between atoms: _3  and  _6
REMARK    4  A    between atoms: _6  and  _7
REMARK    5  A    between atoms: _7  and  _8
REMARK    6  A    between atoms: _10  and  _12
REMARK    7  A    between atoms: _12  and  _13
REMARK    8  A    between atoms: _12  and  _15
REMARK    9  A    between atoms: _15  and  _16
REMARK   10  A    between atoms: _16  and  _17
REMARK   11  A    between atoms: _19  and  _21
REMARK   12  A    between atoms: _21  and  _22
REMARK   13  A    between atoms: _21  and  _24
REMARK   14  A    between atoms: _24  and  _25
REMARK   15  A    between atoms: _30  and  _32
REMARK   16  A    between atoms: _32  and  _33
REMARK   17  A    between atoms: _35  and  _37
REMARK   18  A    between atoms: _37  and  _38
REMARK   19  A    between atoms: _37  and  _40
REMARK   20  A    between atoms: _40  and  _41
REMARK   21  A    between atoms: _46  and  _48
REMARK   22  A    between atoms: _48  and  _49
REMARK   23  A    between atoms: _48  and  _51
REMARK   24  A    between atoms: _51  and  _52
REMARK   25  A    between atoms: _52  and  _53
REMARK   26  A    between atoms: _53  and  _54
REMARK   27  A    between atoms: _63  and  _65
REMARK   28  A    between atoms: _65  and  _66
REMARK   29  A    between atoms: _69  and  _71
REMARK   30  A    between atoms: _71  and  _72
REMARK   31  A    between atoms: _75  and  _77
REMARK   32  A    between atoms: _77  and  _78
REMARK   33  A    between atoms: _77  and  _80
REMARK   34  A    between atoms: _80  and  _81
REMARK   35  A    between atoms: _87  and  _89
REMARK   36  A    between atoms: _89  and  _90
REMARK   37  A    between atoms: _94  and  _95
REMARK   38  A    between atoms: _100  and  _102
REMARK   39  A    between atoms: _102  and  _103
REMARK   40  A    between atoms: _102  and  _105
REMARK   41  A    between atoms: _105  and  _106
REMARK   42  A    between atoms: _106  and  _107
REMARK   43  A    between atoms: _107  and  _108
REMARK   44  A    between atoms: _117  and  _119
REMARK   45  A    between atoms: _119  and  _120
REMARK   46  A    between atoms: _119  and  _122
REMARK   47  A    between atoms: _122  and  _123
REMARK   48  A    between atoms: _129  and  _131
REMARK   49  A    between atoms: _131  and  _132
REMARK   50  A    between atoms: _131  and  _134
REMARK   51  A    between atoms: _134  and  _135
REMARK   52  A    between atoms: _141  and  _142
REMARK   53  A    between atoms: _147  and  _149
REMARK   54  A    between atoms: _149  and  _150
REMARK   55  A    between atoms: _149  and  _152
REMARK   56  A    between atoms: _152  and  _153
REMARK   57  A    between atoms: _155  and  _157
REMARK   58  A    between atoms: _157  and  _158
REMARK   59  A    between atoms: _157  and  _160
REMARK   60  A    between atoms: _160  and  _161
REMARK   61  A    between atoms: _166  and  _167
REMARK   62  A    between atoms: _169  and  _171
REMARK   63  A    between atoms: _171  and  _172
REMARK   64  A    between atoms: _171  and  _174
REMARK   65  A    between atoms: _174  and  _175
REMARK   66  A    between atoms: _175  and  _176
REMARK   67  A    between atoms: _176  and  _177
REMARK   68  A    between atoms: _186  and  _188
REMARK   69  A    between atoms: _188  and  _189
REMARK   70  A    between atoms: _188  and  _191
REMARK   71  A    between atoms: _191  and  _192
REMARK   72  A    between atoms: _197  and  _199
REMARK   73  A    between atoms: _199  and  _200
REMARK   74  A    between atoms: _203  and  _205
REMARK   75  A    between atoms: _205  and  _206
REMARK   76  A    between atoms: _209  and  _211
REMARK   77  A    between atoms: _211  and  _212
REMARK   78  A    between atoms: _215  and  _217
REMARK   79  A    between atoms: _217  and  _218
REMARK   80  A    between atoms: _217  and  _220
REMARK   81  A    between atoms: _220  and  _221
REMARK   82  A    between atoms: _221  and  _222
REMARK   83  A    between atoms: _222  and  _223
REMARK   84  A    between atoms: _232  and  _234
REMARK   85  A    between atoms: _234  and  _235
REMARK   86  A    between atoms: _234  and  _237
REMARK   87  A    between atoms: _237  and  _238
REMARK   88  A    between atoms: _238  and  _239
REMARK   89  A    between atoms: _239  and  _240
REMARK   90  A    between atoms: _249  and  _251
REMARK   91  A    between atoms: _251  and  _252
REMARK   92  A    between atoms: _251  and  _254
REMARK   93  A    between atoms: _254  and  _255
REMARK   94  A    between atoms: _258  and  _260
REMARK   95  A    between atoms: _260  and  _261
REMARK   96  A    between atoms: _263  and  _265
REMARK   97  A    between atoms: _265  and  _266
REMARK   98  A    between atoms: _265  and  _268
REMARK   99  A    between atoms: _268  and  _269
REMARK                            x       y       z     vdW  Elec       q    Type
REMARK                         _______ _______ _______ _____ _____    ______ ____
ROOT
ATOM      1  O   HOH     1      70.493  79.799  33.184  0.00  0.00    +0.000 OA
ENDROOT
TORSDOF 0
REMARK  Name = ../refined-set-2016/3twp/3twp_pocket.pdb
REMARK  99 active torsions:
REMARK  status: ('A' for Active; 'I' for Inactive)
REMARK    1  A    between atoms: _1  and  _3
REMARK    2  A    between atoms: _3  and  _4
REMARK    3  A    between atoms: _3  and  _6
REMARK    4  A    between atoms: _6  and  _7
REMARK    5  A    between atoms: _7  and  _8
REMARK    6  A    between atoms: _10  and  _12
REMARK    7  A    between atoms: _12  and  _13
REMARK    8  A    between atoms: _12  and  _15
REMARK    9  A    between atoms: _15  and  _16
REMARK   10  A    between atoms: _16  and  _17
REMARK   11  A    between atoms: _19  and  _21
REMARK   12  A    between atoms: _21  and  _22
REMARK   13  A    between atoms: _21  and  _24
REMARK   14  A    between atoms: _24  and  _25
REMARK   15  A    between atoms: _30  and  _32
REMARK   16  A    between atoms: _32  and  _33
REMARK   17  A    between atoms: _35  and  _37
REMARK   18  A    between atoms: _37  and  _38
REMARK   19  A    between atoms: _37  and  _40
REMARK   20  A    between atoms: _40  and  _41
REMARK   21  A    between atoms: _46  and  _48
REMARK   22  A    between atoms: _48  and  _49
REMARK   23  A    between atoms: _48  and  _51
REMARK   24  A    between atoms: _51  and  _52
REMARK   25  A    between atoms: _52  and  _53
REMARK   26  A    between atoms: _53  and  _54
REMARK   27  A    between atoms: _63  and  _65
REMARK   28  A    between atoms: _65  and  _66
REMARK   29  A    between atoms: _69  and  _71
REMARK   30  A    between atoms: _71  and  _72
REMARK   31  A    between atoms: _75  and  _77
REMARK   32  A    between atoms: _77  and  _78
REMARK   33  A    between atoms: _77  and  _80
REMARK   34  A    between atoms: _80  and  _81
REMARK   35  A    between atoms: _87  and  _89
REMARK   36  A    between atoms: _89  and  _90
REMARK   37  A    between atoms: _94  and  _95
REMARK   38  A    between atoms: _100  and  _102
REMARK   39  A    between atoms: _102  and  _103
REMARK   40  A    between atoms: _102  and  _105
REMARK   41  A    between atoms: _105  and  _106
REMARK   42  A    between atoms: _106  and  _107
REMARK   43  A    between atoms: _107  and  _108
REMARK   44  A    between atoms: _117  and  _119
REMARK   45  A    between atoms: _119  and  _120
REMARK   46  A    between atoms: _119  and  _122
REMARK   47  A    between atoms: _122  and  _123
REMARK   48  A    between atoms: _129  and  _131
REMARK   49  A    between atoms: _131  and  _132
REMARK   50  A    between atoms: _131  and  _134
REMARK   51  A    between atoms: _134  and  _135
REMARK   52  A    between atoms: _141  and  _142
REMARK   53  A    between atoms: _147  and  _149
REMARK   54  A    between atoms: _149  and  _150
REMARK   55  A    between atoms: _149  and  _152
REMARK   56  A    between atoms: _152  and  _153
REMARK   57  A    between atoms: _155  and  _157
REMARK   58  A    between atoms: _157  and  _158
REMARK   59  A    between atoms: _157  and  _160
REMARK   60  A    between atoms: _160  and  _161
REMARK   61  A    between atoms: _166  and  _167
REMARK   62  A    between atoms: _169  and  _171
REMARK   63  A    between atoms: _171  and  _172
REMARK   64  A    between atoms: _171  and  _174
REMARK   65  A    between atoms: _174  and  _175
REMARK   66  A    between atoms: _175  and  _176
REMARK   67  A    between atoms: _176  and  _177
REMARK   68  A    between atoms: _186  and  _188
REMARK   69  A    between atoms: _188  and  _189
REMARK   70  A    between atoms: _188  and  _191
REMARK   71  A    between atoms: _191  and  _192
REMARK   72  A    between atoms: _197  and  _199
REMARK   73  A    between atoms: _199  and  _200
REMARK   74  A    between atoms: _203  and  _205
REMARK   75  A    between atoms: _205  and  _206
REMARK   76  A    between atoms: _209  and  _211
REMARK   77  A    between atoms: _211  and  _212
REMARK   78  A    between atoms: _215  and  _217
REMARK   79  A    between atoms: _217  and  _218
REMARK   80  A    between atoms: _217  and  _220
REMARK   81  A    between atoms: _220  and  _221
REMARK   82  A    between atoms: _221  and  _222
REMARK   83  A    between atoms: _222  and  _223
REMARK   84  A    between atoms: _232  and  _234
REMARK   85  A    between atoms: _234  and  _235
REMARK   86  A    between atoms: _234  and  _237
REMARK   87  A    between atoms: _237  and  _238
REMARK   88  A    between atoms: _238  and  _239
REMARK   89  A    between atoms: _239  and  _240
REMARK   90  A    between atoms: _249  and  _251
REMARK   91  A    between atoms: _251  and  _252
REMARK   92  A    between atoms: _251  and  _254
REMARK   93  A    between atoms: _254  and  _255
REMARK   94  A    between atoms: _258  and  _260
REMARK   95  A    between atoms: _260  and  _261
REMARK   96  A    between atoms: _263  and  _265
REMARK   97  A    between atoms: _265  and  _266
REMARK   98  A    between atoms: _265  and  _268
REMARK   99  A    between atoms: _268  and  _269
REMARK                            x       y       z     vdW  Elec       q    Type
REMARK                         _______ _______ _______ _____ _____    ______ ____
ROOT
ATOM      1  O   HOH     1      75.687  84.973  29.706  0.00  0.00    +0.000 OA
ENDROOT
TORSDOF 0
REMARK  Name = ../refined-set-2016/3twp/3twp_pocket.pdb
REMARK  99 active torsions:
REMARK  status: ('A' for Active; 'I' for Inactive)
REMARK    1  A    between atoms: _1  and  _3
REMARK    2  A    between atoms: _3  and  _4
REMARK    3  A    between atoms: _3  and  _6
REMARK    4  A    between atoms: _6  and  _7
REMARK    5  A    between atoms: _7  and  _8
REMARK    6  A    between atoms: _10  and  _12
REMARK    7  A    between atoms: _12  and  _13
REMARK    8  A    between atoms: _12  and  _15
REMARK    9  A    between atoms: _15  and  _16
REMARK   10  A    between atoms: _16  and  _17
REMARK   11  A    between atoms: _19  and  _21
REMARK   12  A    between atoms: _21  and  _22
REMARK   13  A    between atoms: _21  and  _24
REMARK   14  A    between atoms: _24  and  _25
REMARK   15  A    between atoms: _30  and  _32
REMARK   16  A    between atoms: _32  and  _33
REMARK   17  A    between atoms: _35  and  _37
REMARK   18  A    between atoms: _37  and  _38
REMARK   19  A    between atoms: _37  and  _40
REMARK   20  A    between atoms: _40  and  _41
REMARK   21  A    between atoms: _46  and  _48
REMARK   22  A    between atoms: _48  and  _49
REMARK   23  A    between atoms: _48  and  _51
REMARK   24  A    between atoms: _51  and  _52
REMARK   25  A    between atoms: _52  and  _53
REMARK   26  A    between atoms: _53  and  _54
REMARK   27  A    between atoms: _63  and  _65
REMARK   28  A    between atoms: _65  and  _66
REMARK   29  A    between atoms: _69  and  _71
REMARK   30  A    between atoms: _71  and  _72
REMARK   31  A    between atoms: _75  and  _77
REMARK   32  A    between atoms: _77  and  _78
REMARK   33  A    between atoms: _77  and  _80
REMARK   34  A    between atoms: _80  and  _81
REMARK   35  A    between atoms: _87  and  _89
REMARK   36  A    between atoms: _89  and  _90
REMARK   37  A    between atoms: _94  and  _95
REMARK   38  A    between atoms: _100  and  _102
REMARK   39  A    between atoms: _102  and  _103
REMARK   40  A    between atoms: _102  and  _105
REMARK   41  A    between atoms: _105  and  _106
REMARK   42  A    between atoms: _106  and  _107
REMARK   43  A    between atoms: _107  and  _108
REMARK   44  A    between atoms: _117  and  _119
REMARK   45  A    between atoms: _119  and  _120
REMARK   46  A    between atoms: _119  and  _122
REMARK   47  A    between atoms: _122  and  _123
REMARK   48  A    between atoms: _129  and  _131
REMARK   49  A    between atoms: _131  and  _132
REMARK   50  A    between atoms: _131  and  _134
REMARK   51  A    between atoms: _134  and  _135
REMARK   52  A    between atoms: _141  and  _142
REMARK   53  A    between atoms: _147  and  _149
REMARK   54  A    between atoms: _149  and  _150
REMARK   55  A    between atoms: _149  and  _152
REMARK   56  A    between atoms: _152  and  _153
REMARK   57  A    between atoms: _155  and  _157
REMARK   58  A    between atoms: _157  and  _158
REMARK   59  A    between atoms: _157  and  _160
REMARK   60  A    between atoms: _160  and  _161
REMARK   61  A    between atoms: _166  and  _167
REMARK   62  A    between atoms: _169  and  _171
REMARK   63  A    between atoms: _171  and  _172
REMARK   64  A    between atoms: _171  and  _174
REMARK   65  A    between atoms: _174  and  _175
REMARK   66  A    between atoms: _175  and  _176
REMARK   67  A    between atoms: _176  and  _177
REMARK   68  A    between atoms: _186  and  _188
REMARK   69  A    between atoms: _188  and  _189
REMARK   70  A    between atoms: _188  and  _191
REMARK   71  A    between atoms: _191  and  _192
REMARK   72  A    between atoms: _197  and  _199
REMARK   73  A    between atoms: _199  and  _200
REMARK   74  A    between atoms: _203  and  _205
REMARK   75  A    between atoms: _205  and  _206
REMARK   76  A    between atoms: _209  and  _211
REMARK   77  A    between atoms: _211  and  _212
REMARK   78  A    between atoms: _215  and  _217
REMARK   79  A    between atoms: _217  and  _218
REMARK   80  A    between atoms: _217  and  _220
REMARK   81  A    between atoms: _220  and  _221
REMARK   82  A    between atoms: _221  and  _222
REMARK   83  A    between atoms: _222  and  _223
REMARK   84  A    between atoms: _232  and  _234
REMARK   85  A    between atoms: _234  and  _235
REMARK   86  A    between atoms: _234  and  _237
REMARK   87  A    between atoms: _237  and  _238
REMARK   88  A    between atoms: _238  and  _239
REMARK   89  A    between atoms: _239  and  _240
REMARK   90  A    between atoms: _249  and  _251
REMARK   91  A    between atoms: _251  and  _252
REMARK   92  A    between atoms: _251  and  _254
REMARK   93  A    between atoms: _254  and  _255
REMARK   94  A    between atoms: _258  and  _260
REMARK   95  A    between atoms: _260  and  _261
REMARK   96  A    between atoms: _263  and  _265
REMARK   97  A    between atoms: _265  and  _266
REMARK   98  A    between atoms: _265  and  _268
REMARK   99  A    between atoms: _268  and  _269
REMARK                            x       y       z     vdW  Elec       q    Type
REMARK                         _______ _______ _______ _____ _____    ______ ____
ROOT
ATOM      1  O   HOH     1      73.975  84.237  31.661  0.00  0.00    +0.000 OA
ENDROOT
TORSDOF 0
REMARK  Name = ../refined-set-2016/3twp/3twp_pocket.pdb
REMARK  99 active torsions:
REMARK  status: ('A' for Active; 'I' for Inactive)
REMARK    1  A    between atoms: _1  and  _3
REMARK    2  A    between atoms: _3  and  _4
REMARK    3  A    between atoms: _3  and  _6
REMARK    4  A    between atoms: _6  and  _7
REMARK    5  A    between atoms: _7  and  _8
REMARK    6  A    between atoms: _10  and  _12
REMARK    7  A    between atoms: _12  and  _13
REMARK    8  A    between atoms: _12  and  _15
REMARK    9  A    between atoms: _15  and  _16
REMARK   10  A    between atoms: _16  and  _17
REMARK   11  A    between atoms: _19  and  _21
REMARK   12  A    between atoms: _21  and  _22
REMARK   13  A    between atoms: _21  and  _24
REMARK   14  A    between atoms: _24  and  _25
REMARK   15  A    between atoms: _30  and  _32
REMARK   16  A    between atoms: _32  and  _33
REMARK   17  A    between atoms: _35  and  _37
REMARK   18  A    between atoms: _37  and  _38
REMARK   19  A    between atoms: _37  and  _40
REMARK   20  A    between atoms: _40  and  _41
REMARK   21  A    between atoms: _46  and  _48
REMARK   22  A    between atoms: _48  and  _49
REMARK   23  A    between atoms: _48  and  _51
REMARK   24  A    between atoms: _51  and  _52
REMARK   25  A    between atoms: _52  and  _53
REMARK   26  A    between atoms: _53  and  _54
REMARK   27  A    between atoms: _63  and  _65
REMARK   28  A    between atoms: _65  and  _66
REMARK   29  A    between atoms: _69  and  _71
REMARK   30  A    between atoms: _71  and  _72
REMARK   31  A    between atoms: _75  and  _77
REMARK   32  A    between atoms: _77  and  _78
REMARK   33  A    between atoms: _77  and  _80
REMARK   34  A    between atoms: _80  and  _81
REMARK   35  A    between atoms: _87  and  _89
REMARK   36  A    between atoms: _89  and  _90
REMARK   37  A    between atoms: _94  and  _95
REMARK   38  A    between atoms: _100  and  _102
REMARK   39  A    between atoms: _102  and  _103
REMARK   40  A    between atoms: _102  and  _105
REMARK   41  A    between atoms: _105  and  _106
REMARK   42  A    between atoms: _106  and  _107
REMARK   43  A    between atoms: _107  and  _108
REMARK   44  A    between atoms: _117  and  _119
REMARK   45  A    between atoms: _119  and  _120
REMARK   46  A    between atoms: _119  and  _122
REMARK   47  A    between atoms: _122  and  _123
REMARK   48  A    between atoms: _129  and  _131
REMARK   49  A    between atoms: _131  and  _132
REMARK   50  A    between atoms: _131  and  _134
REMARK   51  A    between atoms: _134  and  _135
REMARK   52  A    between atoms: _141  and  _142
REMARK   53  A    between atoms: _147  and  _149
REMARK   54  A    between atoms: _149  and  _150
REMARK   55  A    between atoms: _149  and  _152
REMARK   56  A    between atoms: _152  and  _153
REMARK   57  A    between atoms: _155  and  _157
REMARK   58  A    between atoms: _157  and  _158
REMARK   59  A    between atoms: _157  and  _160
REMARK   60  A    between atoms: _160  and  _161
REMARK   61  A    between atoms: _166  and  _167
REMARK   62  A    between atoms: _169  and  _171
REMARK   63  A    between atoms: _171  and  _172
REMARK   64  A    between atoms: _171  and  _174
REMARK   65  A    between atoms: _174  and  _175
REMARK   66  A    between atoms: _175  and  _176
REMARK   67  A    between atoms: _176  and  _177
REMARK   68  A    between atoms: _186  and  _188
REMARK   69  A    between atoms: _188  and  _189
REMARK   70  A    between atoms: _188  and  _191
REMARK   71  A    between atoms: _191  and  _192
REMARK   72  A    between atoms: _197  and  _199
REMARK   73  A    between atoms: _199  and  _200
REMARK   74  A    between atoms: _203  and  _205
REMARK   75  A    between atoms: _205  and  _206
REMARK   76  A    between atoms: _209  and  _211
REMARK   77  A    between atoms: _211  and  _212
REMARK   78  A    between atoms: _215  and  _217
REMARK   79  A    between atoms: _217  and  _218
REMARK   80  A    between atoms: _217  and  _220
REMARK   81  A    between atoms: _220  and  _221
REMARK   82  A    between atoms: _221  and  _222
REMARK   83  A    between atoms: _222  and  _223
REMARK   84  A    between atoms: _232  and  _234
REMARK   85  A    between atoms: _234  and  _235
REMARK   86  A    between atoms: _234  and  _237
REMARK   87  A    between atoms: _237  and  _238
REMARK   88  A    between atoms: _238  and  _239
REMARK   89  A    between atoms: _239  and  _240
REMARK   90  A    between atoms: _249  and  _251
REMARK   91  A    between atoms: _251  and  _252
REMARK   92  A    between atoms: _251  and  _254
REMARK   93  A    between atoms: _254  and  _255
REMARK   94  A    between atoms: _258  and  _260
REMARK   95  A    between atoms: _260  and  _261
REMARK   96  A    between atoms: _263  and  _265
REMARK   97  A    between atoms: _265  and  _266
REMARK   98  A    between atoms: _265  and  _268
REMARK   99  A    between atoms: _268  and  _269
REMARK                            x       y       z     vdW  Elec       q    Type
REMARK                         _______ _______ _______ _____ _____    ______ ____
ROOT
ATOM      1  O   HOH     1      69.603  89.226  24.187  0.00  0.00    +0.000 OA
ENDROOT
TORSDOF 0
REMARK  Name = ../refined-set-2016/3twp/3twp_pocket.pdb
REMARK  99 active torsions:
REMARK  status: ('A' for Active; 'I' for Inactive)
REMARK    1  A    between atoms: _1  and  _3
REMARK    2  A    between atoms: _3  and  _4
REMARK    3  A    between atoms: _3  and  _6
REMARK    4  A    between atoms: _6  and  _7
REMARK    5  A    between atoms: _7  and  _8
REMARK    6  A    between atoms: _10  and  _12
REMARK    7  A    between atoms: _12  and  _13
REMARK    8  A    between atoms: _12  and  _15
REMARK    9  A    between atoms: _15  and  _16
REMARK   10  A    between atoms: _16  and  _17
REMARK   11  A    between atoms: _19  and  _21
REMARK   12  A    between atoms: _21  and  _22
REMARK   13  A    between atoms: _21  and  _24
REMARK   14  A    between atoms: _24  and  _25
REMARK   15  A    between atoms: _30  and  _32
REMARK   16  A    between atoms: _32  and  _33
REMARK   17  A    between atoms: _35  and  _37
REMARK   18  A    between atoms: _37  and  _38
REMARK   19  A    between atoms: _37  and  _40
REMARK   20  A    between atoms: _40  and  _41
REMARK   21  A    between atoms: _46  and  _48
REMARK   22  A    between atoms: _48  and  _49
REMARK   23  A    between atoms: _48  and  _51
REMARK   24  A    between atoms: _51  and  _52
REMARK   25  A    between atoms: _52  and  _53
REMARK   26  A    between atoms: _53  and  _54
REMARK   27  A    between atoms: _63  and  _65
REMARK   28  A    between atoms: _65  and  _66
REMARK   29  A    between atoms: _69  and  _71
REMARK   30  A    between atoms: _71  and  _72
REMARK   31  A    between atoms: _75  and  _77
REMARK   32  A    between atoms: _77  and  _78
REMARK   33  A    between atoms: _77  and  _80
REMARK   34  A    between atoms: _80  and  _81
REMARK   35  A    between atoms: _87  and  _89
REMARK   36  A    between atoms: _89  and  _90
REMARK   37  A    between atoms: _94  and  _95
REMARK   38  A    between atoms: _100  and  _102
REMARK   39  A    between atoms: _102  and  _103
REMARK   40  A    between atoms: _102  and  _105
REMARK   41  A    between atoms: _105  and  _106
REMARK   42  A    between atoms: _106  and  _107
REMARK   43  A    between atoms: _107  and  _108
REMARK   44  A    between atoms: _117  and  _119
REMARK   45  A    between atoms: _119  and  _120
REMARK   46  A    between atoms: _119  and  _122
REMARK   47  A    between atoms: _122  and  _123
REMARK   48  A    between atoms: _129  and  _131
REMARK   49  A    between atoms: _131  and  _132
REMARK   50  A    between atoms: _131  and  _134
REMARK   51  A    between atoms: _134  and  _135
REMARK   52  A    between atoms: _141  and  _142
REMARK   53  A    between atoms: _147  and  _149
REMARK   54  A    between atoms: _149  and  _150
REMARK   55  A    between atoms: _149  and  _152
REMARK   56  A    between atoms: _152  and  _153
REMARK   57  A    between atoms: _155  and  _157
REMARK   58  A    between atoms: _157  and  _158
REMARK   59  A    between atoms: _157  and  _160
REMARK   60  A    between atoms: _160  and  _161
REMARK   61  A    between atoms: _166  and  _167
REMARK   62  A    between atoms: _169  and  _171
REMARK   63  A    between atoms: _171  and  _172
REMARK   64  A    between atoms: _171  and  _174
REMARK   65  A    between atoms: _174  and  _175
REMARK   66  A    between atoms: _175  and  _176
REMARK   67  A    between atoms: _176  and  _177
REMARK   68  A    between atoms: _186  and  _188
REMARK   69  A    between atoms: _188  and  _189
REMARK   70  A    between atoms: _188  and  _191
REMARK   71  A    between atoms: _191  and  _192
REMARK   72  A    between atoms: _197  and  _199
REMARK   73  A    between atoms: _199  and  _200
REMARK   74  A    between atoms: _203  and  _205
REMARK   75  A    between atoms: _205  and  _206
REMARK   76  A    between atoms: _209  and  _211
REMARK   77  A    between atoms: _211  and  _212
REMARK   78  A    between atoms: _215  and  _217
REMARK   79  A    between atoms: _217  and  _218
REMARK   80  A    between atoms: _217  and  _220
REMARK   81  A    between atoms: _220  and  _221
REMARK   82  A    between atoms: _221  and  _222
REMARK   83  A    between atoms: _222  and  _223
REMARK   84  A    between atoms: _232  and  _234
REMARK   85  A    between atoms: _234  and  _235
REMARK   86  A    between atoms: _234  and  _237
REMARK   87  A    between atoms: _237  and  _238
REMARK   88  A    between atoms: _238  and  _239
REMARK   89  A    between atoms: _239  and  _240
REMARK   90  A    between atoms: _249  and  _251
REMARK   91  A    between atoms: _251  and  _252
REMARK   92  A    between atoms: _251  and  _254
REMARK   93  A    between atoms: _254  and  _255
REMARK   94  A    between atoms: _258  and  _260
REMARK   95  A    between atoms: _260  and  _261
REMARK   96  A    between atoms: _263  and  _265
REMARK   97  A    between atoms: _265  and  _266
REMARK   98  A    between atoms: _265  and  _268
REMARK   99  A    between atoms: _268  and  _269
REMARK                            x       y       z     vdW  Elec       q    Type
REMARK                         _______ _______ _______ _____ _____    ______ ____
ROOT
ATOM      1  O   HOH     1      74.614  77.454  34.314  0.00  0.00    +0.000 OA
ENDROOT
TORSDOF 0
REMARK  Name = ../refined-set-2016/3twp/3twp_pocket.pdb
REMARK  99 active torsions:
REMARK  status: ('A' for Active; 'I' for Inactive)
REMARK    1  A    between atoms: _1  and  _3
REMARK    2  A    between atoms: _3  and  _4
REMARK    3  A    between atoms: _3  and  _6
REMARK    4  A    between atoms: _6  and  _7
REMARK    5  A    between atoms: _7  and  _8
REMARK    6  A    between atoms: _10  and  _12
REMARK    7  A    between atoms: _12  and  _13
REMARK    8  A    between atoms: _12  and  _15
REMARK    9  A    between atoms: _15  and  _16
REMARK   10  A    between atoms: _16  and  _17
REMARK   11  A    between atoms: _19  and  _21
REMARK   12  A    between atoms: _21  and  _22
REMARK   13  A    between atoms: _21  and  _24
REMARK   14  A    between atoms: _24  and  _25
REMARK   15  A    between atoms: _30  and  _32
REMARK   16  A    between atoms: _32  and  _33
REMARK   17  A    between atoms: _35  and  _37
REMARK   18  A    between atoms: _37  and  _38
REMARK   19  A    between atoms: _37  and  _40
REMARK   20  A    between atoms: _40  and  _41
REMARK   21  A    between atoms: _46  and  _48
REMARK   22  A    between atoms: _48  and  _49
REMARK   23  A    between atoms: _48  and  _51
REMARK   24  A    between atoms: _51  and  _52
REMARK   25  A    between atoms: _52  and  _53
REMARK   26  A    between atoms: _53  and  _54
REMARK   27  A    between atoms: _63  and  _65
REMARK   28  A    between atoms: _65  and  _66
REMARK   29  A    between atoms: _69  and  _71
REMARK   30  A    between atoms: _71  and  _72
REMARK   31  A    between atoms: _75  and  _77
REMARK   32  A    between atoms: _77  and  _78
REMARK   33  A    between atoms: _77  and  _80
REMARK   34  A    between atoms: _80  and  _81
REMARK   35  A    between atoms: _87  and  _89
REMARK   36  A    between atoms: _89  and  _90
REMARK   37  A    between atoms: _94  and  _95
REMARK   38  A    between atoms: _100  and  _102
REMARK   39  A    between atoms: _102  and  _103
REMARK   40  A    between atoms: _102  and  _105
REMARK   41  A    between atoms: _105  and  _106
REMARK   42  A    between atoms: _106  and  _107
REMARK   43  A    between atoms: _107  and  _108
REMARK   44  A    between atoms: _117  and  _119
REMARK   45  A    between atoms: _119  and  _120
REMARK   46  A    between atoms: _119  and  _122
REMARK   47  A    between atoms: _122  and  _123
REMARK   48  A    between atoms: _129  and  _131
REMARK   49  A    between atoms: _131  and  _132
REMARK   50  A    between atoms: _131  and  _134
REMARK   51  A    between atoms: _134  and  _135
REMARK   52  A    between atoms: _141  and  _142
REMARK   53  A    between atoms: _147  and  _149
REMARK   54  A    between atoms: _149  and  _150
REMARK   55  A    between atoms: _149  and  _152
REMARK   56  A    between atoms: _152  and  _153
REMARK   57  A    between atoms: _155  and  _157
REMARK   58  A    between atoms: _157  and  _158
REMARK   59  A    between atoms: _157  and  _160
REMARK   60  A    between atoms: _160  and  _161
REMARK   61  A    between atoms: _166  and  _167
REMARK   62  A    between atoms: _169  and  _171
REMARK   63  A    between atoms: _171  and  _172
REMARK   64  A    between atoms: _171  and  _174
REMARK   65  A    between atoms: _174  and  _175
REMARK   66  A    between atoms: _175  and  _176
REMARK   67  A    between atoms: _176  and  _177
REMARK   68  A    between atoms: _186  and  _188
REMARK   69  A    between atoms: _188  and  _189
REMARK   70  A    between atoms: _188  and  _191
REMARK   71  A    between atoms: _191  and  _192
REMARK   72  A    between atoms: _197  and  _199
REMARK   73  A    between atoms: _199  and  _200
REMARK   74  A    between atoms: _203  and  _205
REMARK   75  A    between atoms: _205  and  _206
REMARK   76  A    between atoms: _209  and  _211
REMARK   77  A    between atoms: _211  and  _212
REMARK   78  A    between atoms: _215  and  _217
REMARK   79  A    between atoms: _217  and  _218
REMARK   80  A    between atoms: _217  and  _220
REMARK   81  A    between atoms: _220  and  _221
REMARK   82  A    between atoms: _221  and  _222
REMARK   83  A    between atoms: _222  and  _223
REMARK   84  A    between atoms: _232  and  _234
REMARK   85  A    between atoms: _234  and  _235
REMARK   86  A    between atoms: _234  and  _237
REMARK   87  A    between atoms: _237  and  _238
REMARK   88  A    between atoms: _238  and  _239
REMARK   89  A    between atoms: _239  and  _240
REMARK   90  A    between atoms: _249  and  _251
REMARK   91  A    between atoms: _251  and  _252
REMARK   92  A    between atoms: _251  and  _254
REMARK   93  A    between atoms: _254  and  _255
REMARK   94  A    between atoms: _258  and  _260
REMARK   95  A    between atoms: _260  and  _261
REMARK   96  A    between atoms: _263  and  _265
REMARK   97  A    between atoms: _265  and  _266
REMARK   98  A    between atoms: _265  and  _268
REMARK   99  A    between atoms: _268  and  _269
REMARK                            x       y       z     vdW  Elec       q    Type
REMARK                         _______ _______ _______ _____ _____    ______ ____
ROOT
ATOM      1  O   HOH     1      73.519  79.465  32.942  0.00  0.00    +0.000 OA
ENDROOT
TORSDOF 0
REMARK  Name = ../refined-set-2016/3twp/3twp_pocket.pdb
REMARK  99 active torsions:
REMARK  status: ('A' for Active; 'I' for Inactive)
REMARK    1  A    between atoms: _1  and  _3
REMARK    2  A    between atoms: _3  and  _4
REMARK    3  A    between atoms: _3  and  _6
REMARK    4  A    between atoms: _6  and  _7
REMARK    5  A    between atoms: _7  and  _8
REMARK    6  A    between atoms: _10  and  _12
REMARK    7  A    between atoms: _12  and  _13
REMARK    8  A    between atoms: _12  and  _15
REMARK    9  A    between atoms: _15  and  _16
REMARK   10  A    between atoms: _16  and  _17
REMARK   11  A    between atoms: _19  and  _21
REMARK   12  A    between atoms: _21  and  _22
REMARK   13  A    between atoms: _21  and  _24
REMARK   14  A    between atoms: _24  and  _25
REMARK   15  A    between atoms: _30  and  _32
REMARK   16  A    between atoms: _32  and  _33
REMARK   17  A    between atoms: _35  and  _37
REMARK   18  A    between atoms: _37  and  _38
REMARK   19  A    between atoms: _37  and  _40
REMARK   20  A    between atoms: _40  and  _41
REMARK   21  A    between atoms: _46  and  _48
REMARK   22  A    between atoms: _48  and  _49
REMARK   23  A    between atoms: _48  and  _51
REMARK   24  A    between atoms: _51  and  _52
REMARK   25  A    between atoms: _52  and  _53
REMARK   26  A    between atoms: _53  and  _54
REMARK   27  A    between atoms: _63  and  _65
REMARK   28  A    between atoms: _65  and  _66
REMARK   29  A    between atoms: _69  and  _71
REMARK   30  A    between atoms: _71  and  _72
REMARK   31  A    between atoms: _75  and  _77
REMARK   32  A    between atoms: _77  and  _78
REMARK   33  A    between atoms: _77  and  _80
REMARK   34  A    between atoms: _80  and  _81
REMARK   35  A    between atoms: _87  and  _89
REMARK   36  A    between atoms: _89  and  _90
REMARK   37  A    between atoms: _94  and  _95
REMARK   38  A    between atoms: _100  and  _102
REMARK   39  A    between atoms: _102  and  _103
REMARK   40  A    between atoms: _102  and  _105
REMARK   41  A    between atoms: _105  and  _106
REMARK   42  A    between atoms: _106  and  _107
REMARK   43  A    between atoms: _107  and  _108
REMARK   44  A    between atoms: _117  and  _119
REMARK   45  A    between atoms: _119  and  _120
REMARK   46  A    between atoms: _119  and  _122
REMARK   47  A    between atoms: _122  and  _123
REMARK   48  A    between atoms: _129  and  _131
REMARK   49  A    between atoms: _131  and  _132
REMARK   50  A    between atoms: _131  and  _134
REMARK   51  A    between atoms: _134  and  _135
REMARK   52  A    between atoms: _141  and  _142
REMARK   53  A    between atoms: _147  and  _149
REMARK   54  A    between atoms: _149  and  _150
REMARK   55  A    between atoms: _149  and  _152
REMARK   56  A    between atoms: _152  and  _153
REMARK   57  A    between atoms: _155  and  _157
REMARK   58  A    between atoms: _157  and  _158
REMARK   59  A    between atoms: _157  and  _160
REMARK   60  A    between atoms: _160  and  _161
REMARK   61  A    between atoms: _166  and  _167
REMARK   62  A    between atoms: _169  and  _171
REMARK   63  A    between atoms: _171  and  _172
REMARK   64  A    between atoms: _171  and  _174
REMARK   65  A    between atoms: _174  and  _175
REMARK   66  A    between atoms: _175  and  _176
REMARK   67  A    between atoms: _176  and  _177
REMARK   68  A    between atoms: _186  and  _188
REMARK   69  A    between atoms: _188  and  _189
REMARK   70  A    between atoms: _188  and  _191
REMARK   71  A    between atoms: _191  and  _192
REMARK   72  A    between atoms: _197  and  _199
REMARK   73  A    between atoms: _199  and  _200
REMARK   74  A    between atoms: _203  and  _205
REMARK   75  A    between atoms: _205  and  _206
REMARK   76  A    between atoms: _209  and  _211
REMARK   77  A    between atoms: _211  and  _212
REMARK   78  A    between atoms: _215  and  _217
REMARK   79  A    between atoms: _217  and  _218
REMARK   80  A    between atoms: _217  and  _220
REMARK   81  A    between atoms: _220  and  _221
REMARK   82  A    between atoms: _221  and  _222
REMARK   83  A    between atoms: _222  and  _223
REMARK   84  A    between atoms: _232  and  _234
REMARK   85  A    between atoms: _234  and  _235
REMARK   86  A    between atoms: _234  and  _237
REMARK   87  A    between atoms: _237  and  _238
REMARK   88  A    between atoms: _238  and  _239
REMARK   89  A    between atoms: _239  and  _240
REMARK   90  A    between atoms: _249  and  _251
REMARK   91  A    between atoms: _251  and  _252
REMARK   92  A    between atoms: _251  and  _254
REMARK   93  A    between atoms: _254  and  _255
REMARK   94  A    between atoms: _258  and  _260
REMARK   95  A    between atoms: _260  and  _261
REMARK   96  A    between atoms: _263  and  _265
REMARK   97  A    between atoms: _265  and  _266
REMARK   98  A    between atoms: _265  and  _268
REMARK   99  A    between atoms: _268  and  _269
REMARK                            x       y       z     vdW  Elec       q    Type
REMARK                         _______ _______ _______ _____ _____    ______ ____
ROOT
ATOM      1  O   HOH     1      75.756  82.310  26.422  0.00  0.00    +0.000 OA
ENDROOT
TORSDOF 0
REMARK  Name = ../refined-set-2016/3twp/3twp_pocket.pdb
REMARK  99 active torsions:
REMARK  status: ('A' for Active; 'I' for Inactive)
REMARK    1  A    between atoms: _1  and  _3
REMARK    2  A    between atoms: _3  and  _4
REMARK    3  A    between atoms: _3  and  _6
REMARK    4  A    between atoms: _6  and  _7
REMARK    5  A    between atoms: _7  and  _8
REMARK    6  A    between atoms: _10  and  _12
REMARK    7  A    between atoms: _12  and  _13
REMARK    8  A    between atoms: _12  and  _15
REMARK    9  A    between atoms: _15  and  _16
REMARK   10  A    between atoms: _16  and  _17
REMARK   11  A    between atoms: _19  and  _21
REMARK   12  A    between atoms: _21  and  _22
REMARK   13  A    between atoms: _21  and  _24
REMARK   14  A    between atoms: _24  and  _25
REMARK   15  A    between atoms: _30  and  _32
REMARK   16  A    between atoms: _32  and  _33
REMARK   17  A    between atoms: _35  and  _37
REMARK   18  A    between atoms: _37  and  _38
REMARK   19  A    between atoms: _37  and  _40
REMARK   20  A    between atoms: _40  and  _41
REMARK   21  A    between atoms: _46  and  _48
REMARK   22  A    between atoms: _48  and  _49
REMARK   23  A    between atoms: _48  and  _51
REMARK   24  A    between atoms: _51  and  _52
REMARK   25  A    between atoms: _52  and  _53
REMARK   26  A    between atoms: _53  and  _54
REMARK   27  A    between atoms: _63  and  _65
REMARK   28  A    between atoms: _65  and  _66
REMARK   29  A    between atoms: _69  and  _71
REMARK   30  A    between atoms: _71  and  _72
REMARK   31  A    between atoms: _75  and  _77
REMARK   32  A    between atoms: _77  and  _78
REMARK   33  A    between atoms: _77  and  _80
REMARK   34  A    between atoms: _80  and  _81
REMARK   35  A    between atoms: _87  and  _89
REMARK   36  A    between atoms: _89  and  _90
REMARK   37  A    between atoms: _94  and  _95
REMARK   38  A    between atoms: _100  and  _102
REMARK   39  A    between atoms: _102  and  _103
REMARK   40  A    between atoms: _102  and  _105
REMARK   41  A    between atoms: _105  and  _106
REMARK   42  A    between atoms: _106  and  _107
REMARK   43  A    between atoms: _107  and  _108
REMARK   44  A    between atoms: _117  and  _119
REMARK   45  A    between atoms: _119  and  _120
REMARK   46  A    between atoms: _119  and  _122
REMARK   47  A    between atoms: _122  and  _123
REMARK   48  A    between atoms: _129  and  _131
REMARK   49  A    between atoms: _131  and  _132
REMARK   50  A    between atoms: _131  and  _134
REMARK   51  A    between atoms: _134  and  _135
REMARK   52  A    between atoms: _141  and  _142
REMARK   53  A    between atoms: _147  and  _149
REMARK   54  A    between atoms: _149  and  _150
REMARK   55  A    between atoms: _149  and  _152
REMARK   56  A    between atoms: _152  and  _153
REMARK   57  A    between atoms: _155  and  _157
REMARK   58  A    between atoms: _157  and  _158
REMARK   59  A    between atoms: _157  and  _160
REMARK   60  A    between atoms: _160  and  _161
REMARK   61  A    between atoms: _166  and  _167
REMARK   62  A    between atoms: _169  and  _171
REMARK   63  A    between atoms: _171  and  _172
REMARK   64  A    between atoms: _171  and  _174
REMARK   65  A    between atoms: _174  and  _175
REMARK   66  A    between atoms: _175  and  _176
REMARK   67  A    between atoms: _176  and  _177
REMARK   68  A    between atoms: _186  and  _188
REMARK   69  A    between atoms: _188  and  _189
REMARK   70  A    between atoms: _188  and  _191
REMARK   71  A    between atoms: _191  and  _192
REMARK   72  A    between atoms: _197  and  _199
REMARK   73  A    between atoms: _199  and  _200
REMARK   74  A    between atoms: _203  and  _205
REMARK   75  A    between atoms: _205  and  _206
REMARK   76  A    between atoms: _209  and  _211
REMARK   77  A    between atoms: _211  and  _212
REMARK   78  A    between atoms: _215  and  _217
REMARK   79  A    between atoms: _217  and  _218
REMARK   80  A    between atoms: _217  and  _220
REMARK   81  A    between atoms: _220  and  _221
REMARK   82  A    between atoms: _221  and  _222
REMARK   83  A    between atoms: _222  and  _223
REMARK   84  A    between atoms: _232  and  _234
REMARK   85  A    between atoms: _234  and  _235
REMARK   86  A    between atoms: _234  and  _237
REMARK   87  A    between atoms: _237  and  _238
REMARK   88  A    between atoms: _238  and  _239
REMARK   89  A    between atoms: _239  and  _240
REMARK   90  A    between atoms: _249  and  _251
REMARK   91  A    between atoms: _251  and  _252
REMARK   92  A    between atoms: _251  and  _254
REMARK   93  A    between atoms: _254  and  _255
REMARK   94  A    between atoms: _258  and  _260
REMARK   95  A    between atoms: _260  and  _261
REMARK   96  A    between atoms: _263  and  _265
REMARK   97  A    between atoms: _265  and  _266
REMARK   98  A    between atoms: _265  and  _268
REMARK   99  A    between atoms: _268  and  _269
REMARK                            x       y       z     vdW  Elec       q    Type
REMARK                         _______ _______ _______ _____ _____    ______ ____
ROOT
ATOM      1  O   HOH     1      68.465  85.062  24.622  0.00  0.00    +0.000 OA
ENDROOT
TORSDOF 0
