REMARK  Name = ../refined-set-2016/4f9u/4f9u_pocket.pdb
REMARK  137 active torsions:
REMARK  status: ('A' for Active; 'I' for Inactive)
REMARK    1  A    between atoms: _1  and  _3
REMARK    2  A    between atoms: _3  and  _4
REMARK    3  A    between atoms: _3  and  _6
REMARK    4  A    between atoms: _6  and  _7
REMARK    5  A    between atoms: _12  and  _14
REMARK    6  A    between atoms: _14  and  _15
REMARK    7  A    between atoms: _14  and  _17
REMARK    8  A    between atoms: _17  and  _18
REMARK    9  A    between atoms: _21  and  _23
REMARK   10  A    between atoms: _23  and  _24
REMARK   11  A    between atoms: _23  and  _26
REMARK   12  A    between atoms: _26  and  _27
REMARK   13  A    between atoms: _27  and  _28
REMARK   14  A    between atoms: _28  and  _29
REMARK   15  A    between atoms: _29  and  _30
REMARK   16  A    between atoms: _34  and  _36
REMARK   17  A    between atoms: _36  and  _37
REMARK   18  A    between atoms: _36  and  _39
REMARK   19  A    between atoms: _39  and  _40
REMARK   20  A    between atoms: _46  and  _48
REMARK   21  A    between atoms: _48  and  _49
REMARK   22  A    between atoms: _48  and  _51
REMARK   23  A    between atoms: _51  and  _52
REMARK   24  A    between atoms: _55  and  _57
REMARK   25  A    between atoms: _57  and  _58
REMARK   26  A    between atoms: _57  and  _60
REMARK   27  A    between atoms: _60  and  _61
REMARK   28  A    between atoms: _61  and  _63
REMARK   29  A    between atoms: _63  and  ZN_342
REMARK   30  A    between atoms: _64  and  _66
REMARK   31  A    between atoms: _66  and  _67
REMARK   32  A    between atoms: _66  and  _69
REMARK   33  A    between atoms: _69  and  _70
REMARK   34  A    between atoms: _72  and  _74
REMARK   35  A    between atoms: _74  and  _75
REMARK   36  A    between atoms: _74  and  _77
REMARK   37  A    between atoms: _77  and  _78
REMARK   38  A    between atoms: _78  and  _79
REMARK   39  A    between atoms: _82  and  _84
REMARK   40  A    between atoms: _84  and  _85
REMARK   41  A    between atoms: _84  and  _87
REMARK   42  A    between atoms: _87  and  _88
REMARK   43  A    between atoms: _88  and  _89
REMARK   44  A    between atoms: _89  and  _90
REMARK   45  A    between atoms: _90  and  ZN_342
REMARK   46  A    between atoms: _92  and  _94
REMARK   47  A    between atoms: _94  and  _95
REMARK   48  A    between atoms: _98  and  _100
REMARK   49  A    between atoms: _100  and  _101
REMARK   50  A    between atoms: _100  and  _103
REMARK   51  A    between atoms: _103  and  _104
REMARK   52  A    between atoms: _114  and  _116
REMARK   53  A    between atoms: _116  and  _117
REMARK   54  A    between atoms: _116  and  _119
REMARK   55  A    between atoms: _119  and  _120
REMARK   56  A    between atoms: _122  and  _124
REMARK   57  A    between atoms: _124  and  _125
REMARK   58  A    between atoms: _124  and  _127
REMARK   59  A    between atoms: _130  and  _132
REMARK   60  A    between atoms: _132  and  _133
REMARK   61  A    between atoms: _132  and  _135
REMARK   62  A    between atoms: _135  and  _136
REMARK   63  A    between atoms: _139  and  _141
REMARK   64  A    between atoms: _141  and  _142
REMARK   65  A    between atoms: _141  and  _144
REMARK   66  A    between atoms: _144  and  _145
REMARK   67  A    between atoms: _148  and  _150
REMARK   68  A    between atoms: _150  and  _151
REMARK   69  A    between atoms: _150  and  _153
REMARK   70  A    between atoms: _153  and  _154
REMARK   71  A    between atoms: _157  and  _159
REMARK   72  A    between atoms: _159  and  _160
REMARK   73  A    between atoms: _159  and  _162
REMARK   74  A    between atoms: _162  and  _163
REMARK   75  A    between atoms: _169  and  _171
REMARK   76  A    between atoms: _171  and  _172
REMARK   77  A    between atoms: _174  and  _176
REMARK   78  A    between atoms: _176  and  _177
REMARK   79  A    between atoms: _176  and  _179
REMARK   80  A    between atoms: _179  and  _180
REMARK   81  A    between atoms: _183  and  _185
REMARK   82  A    between atoms: _185  and  _186
REMARK   83  A    between atoms: _185  and  _188
REMARK   84  A    between atoms: _191  and  _193
REMARK   85  A    between atoms: _193  and  _194
REMARK   86  A    between atoms: _193  and  _196
REMARK   87  A    between atoms: _196  and  _197
REMARK   88  A    between atoms: _200  and  _202
REMARK   89  A    between atoms: _202  and  _203
REMARK   90  A    between atoms: _202  and  _205
REMARK   91  A    between atoms: _205  and  _206
REMARK   92  A    between atoms: _209  and  _211
REMARK   93  A    between atoms: _211  and  _212
REMARK   94  A    between atoms: _211  and  _214
REMARK   95  A    between atoms: _214  and  _215
REMARK   96  A    between atoms: _218  and  _220
REMARK   97  A    between atoms: _220  and  _221
REMARK   98  A    between atoms: _220  and  _223
REMARK   99  A    between atoms: _223  and  _224
REMARK  100  A    between atoms: _229  and  _231
REMARK  101  A    between atoms: _231  and  _232
REMARK  102  A    between atoms: _231  and  _234
REMARK  103  A    between atoms: _234  and  _235
REMARK  104  A    between atoms: _235  and  _236
REMARK  105  A    between atoms: _236  and  _237
REMARK  106  A    between atoms: _246  and  _248
REMARK  107  A    between atoms: _248  and  _249
REMARK  108  A    between atoms: _248  and  _251
REMARK  109  A    between atoms: _251  and  _252
REMARK  110  A    between atoms: _257  and  _259
REMARK  111  A    between atoms: _259  and  _260
REMARK  112  A    between atoms: _259  and  _262
REMARK  113  A    between atoms: _265  and  _267
REMARK  114  A    between atoms: _267  and  _268
REMARK  115  A    between atoms: _271  and  _273
REMARK  116  A    between atoms: _273  and  _274
REMARK  117  A    between atoms: _273  and  _276
REMARK  118  A    between atoms: _276  and  _277
REMARK  119  A    between atoms: _281  and  _282
REMARK  120  A    between atoms: _287  and  _289
REMARK  121  A    between atoms: _289  and  _290
REMARK  122  A    between atoms: _289  and  _292
REMARK  123  A    between atoms: _292  and  _293
REMARK  124  A    between atoms: _300  and  _301
REMARK  125  A    between atoms: _306  and  _308
REMARK  126  A    between atoms: _308  and  _309
REMARK  127  A    between atoms: _308  and  _311
REMARK  128  A    between atoms: _311  and  _312
REMARK  129  A    between atoms: _315  and  _317
REMARK  130  A    between atoms: _317  and  _318
REMARK  131  A    between atoms: _317  and  _320
REMARK  132  A    between atoms: _320  and  _321
REMARK  133  A    between atoms: _331  and  _333
REMARK  134  A    between atoms: _333  and  _334
REMARK  135  A    between atoms: _333  and  _336
REMARK  136  A    between atoms: _336  and  _337
REMARK  137  A    between atoms: _341  and  ZN_342
REMARK                            x       y       z     vdW  Elec       q    Type
REMARK                         _______ _______ _______ _____ _____    ______ ____
ROOT
ATOM      1  CB  HIS A   1     -41.741  25.175 -27.886  0.00  0.00    +0.072 C 
ENDROOT
BRANCH   1   2
ATOM      2  CG  HIS A   1     -42.757  24.122 -27.636  0.00  0.00    +0.082 A 
ATOM      3  ND1 HIS A   1     -43.234  23.859 -26.400  0.00  0.00    -0.227 NA
ATOM      4  CE1 HIS A   1     -44.152  22.882 -26.482  0.00  0.00    +0.199 A 
ATOM      5  NE2 HIS A   1     -44.265  22.512 -27.754  0.00  0.00    -0.221 NA
ATOM      6  CD2 HIS A   1     -43.409  23.253 -28.502  0.00  0.00    +0.115 A 
ENDBRANCH   1   2
BRANCH   1   7
ATOM      7  CA  HIS A   1     -40.303  24.683 -27.824  0.00  0.00    +0.139 C 
BRANCH   7   8
ATOM      8  N   HIS A   1     -39.957  23.944 -29.051  0.00  0.00    -0.239 NA
ATOM      9  H   HIS A   1     -40.533  23.130 -29.346  0.00  0.00    +0.142 HD
ENDBRANCH   7   8
BRANCH   7  10
ATOM     10  C   HIS A   1     -39.979  23.803 -26.636  0.00  0.00    +0.224 C 
ATOM     11  O   HIS A   1     -40.134  22.570 -26.705  0.00  0.00    -0.287 OA
ENDBRANCH   7  10
ENDBRANCH   1   7
TORSDOF 4
REMARK  Name = ../refined-set-2016/4f9u/4f9u_pocket.pdb
REMARK  137 active torsions:
REMARK  status: ('A' for Active; 'I' for Inactive)
REMARK    1  A    between atoms: _1  and  _3
REMARK    2  A    between atoms: _3  and  _4
REMARK    3  A    between atoms: _3  and  _6
REMARK    4  A    between atoms: _6  and  _7
REMARK    5  A    between atoms: _12  and  _14
REMARK    6  A    between atoms: _14  and  _15
REMARK    7  A    between atoms: _14  and  _17
REMARK    8  A    between atoms: _17  and  _18
REMARK    9  A    between atoms: _21  and  _23
REMARK   10  A    between atoms: _23  and  _24
REMARK   11  A    between atoms: _23  and  _26
REMARK   12  A    between atoms: _26  and  _27
REMARK   13  A    between atoms: _27  and  _28
REMARK   14  A    between atoms: _28  and  _29
REMARK   15  A    between atoms: _29  and  _30
REMARK   16  A    between atoms: _34  and  _36
REMARK   17  A    between atoms: _36  and  _37
REMARK   18  A    between atoms: _36  and  _39
REMARK   19  A    between atoms: _39  and  _40
REMARK   20  A    between atoms: _46  and  _48
REMARK   21  A    between atoms: _48  and  _49
REMARK   22  A    between atoms: _48  and  _51
REMARK   23  A    between atoms: _51  and  _52
REMARK   24  A    between atoms: _55  and  _57
REMARK   25  A    between atoms: _57  and  _58
REMARK   26  A    between atoms: _57  and  _60
REMARK   27  A    between atoms: _60  and  _61
REMARK   28  A    between atoms: _61  and  _63
REMARK   29  A    between atoms: _63  and  ZN_342
REMARK   30  A    between atoms: _64  and  _66
REMARK   31  A    between atoms: _66  and  _67
REMARK   32  A    between atoms: _66  and  _69
REMARK   33  A    between atoms: _69  and  _70
REMARK   34  A    between atoms: _72  and  _74
REMARK   35  A    between atoms: _74  and  _75
REMARK   36  A    between atoms: _74  and  _77
REMARK   37  A    between atoms: _77  and  _78
REMARK   38  A    between atoms: _78  and  _79
REMARK   39  A    between atoms: _82  and  _84
REMARK   40  A    between atoms: _84  and  _85
REMARK   41  A    between atoms: _84  and  _87
REMARK   42  A    between atoms: _87  and  _88
REMARK   43  A    between atoms: _88  and  _89
REMARK   44  A    between atoms: _89  and  _90
REMARK   45  A    between atoms: _90  and  ZN_342
REMARK   46  A    between atoms: _92  and  _94
REMARK   47  A    between atoms: _94  and  _95
REMARK   48  A    between atoms: _98  and  _100
REMARK   49  A    between atoms: _100  and  _101
REMARK   50  A    between atoms: _100  and  _103
REMARK   51  A    between atoms: _103  and  _104
REMARK   52  A    between atoms: _114  and  _116
REMARK   53  A    between atoms: _116  and  _117
REMARK   54  A    between atoms: _116  and  _119
REMARK   55  A    between atoms: _119  and  _120
REMARK   56  A    between atoms: _122  and  _124
REMARK   57  A    between atoms: _124  and  _125
REMARK   58  A    between atoms: _124  and  _127
REMARK   59  A    between atoms: _130  and  _132
REMARK   60  A    between atoms: _132  and  _133
REMARK   61  A    between atoms: _132  and  _135
REMARK   62  A    between atoms: _135  and  _136
REMARK   63  A    between atoms: _139  and  _141
REMARK   64  A    between atoms: _141  and  _142
REMARK   65  A    between atoms: _141  and  _144
REMARK   66  A    between atoms: _144  and  _145
REMARK   67  A    between atoms: _148  and  _150
REMARK   68  A    between atoms: _150  and  _151
REMARK   69  A    between atoms: _150  and  _153
REMARK   70  A    between atoms: _153  and  _154
REMARK   71  A    between atoms: _157  and  _159
REMARK   72  A    between atoms: _159  and  _160
REMARK   73  A    between atoms: _159  and  _162
REMARK   74  A    between atoms: _162  and  _163
REMARK   75  A    between atoms: _169  and  _171
REMARK   76  A    between atoms: _171  and  _172
REMARK   77  A    between atoms: _174  and  _176
REMARK   78  A    between atoms: _176  and  _177
REMARK   79  A    between atoms: _176  and  _179
REMARK   80  A    between atoms: _179  and  _180
REMARK   81  A    between atoms: _183  and  _185
REMARK   82  A    between atoms: _185  and  _186
REMARK   83  A    between atoms: _185  and  _188
REMARK   84  A    between atoms: _191  and  _193
REMARK   85  A    between atoms: _193  and  _194
REMARK   86  A    between atoms: _193  and  _196
REMARK   87  A    between atoms: _196  and  _197
REMARK   88  A    between atoms: _200  and  _202
REMARK   89  A    between atoms: _202  and  _203
REMARK   90  A    between atoms: _202  and  _205
REMARK   91  A    between atoms: _205  and  _206
REMARK   92  A    between atoms: _209  and  _211
REMARK   93  A    between atoms: _211  and  _212
REMARK   94  A    between atoms: _211  and  _214
REMARK   95  A    between atoms: _214  and  _215
REMARK   96  A    between atoms: _218  and  _220
REMARK   97  A    between atoms: _220  and  _221
REMARK   98  A    between atoms: _220  and  _223
REMARK   99  A    between atoms: _223  and  _224
REMARK  100  A    between atoms: _229  and  _231
REMARK  101  A    between atoms: _231  and  _232
REMARK  102  A    between atoms: _231  and  _234
REMARK  103  A    between atoms: _234  and  _235
REMARK  104  A    between atoms: _235  and  _236
REMARK  105  A    between atoms: _236  and  _237
REMARK  106  A    between atoms: _246  and  _248
REMARK  107  A    between atoms: _248  and  _249
REMARK  108  A    between atoms: _248  and  _251
REMARK  109  A    between atoms: _251  and  _252
REMARK  110  A    between atoms: _257  and  _259
REMARK  111  A    between atoms: _259  and  _260
REMARK  112  A    between atoms: _259  and  _262
REMARK  113  A    between atoms: _265  and  _267
REMARK  114  A    between atoms: _267  and  _268
REMARK  115  A    between atoms: _271  and  _273
REMARK  116  A    between atoms: _273  and  _274
REMARK  117  A    between atoms: _273  and  _276
REMARK  118  A    between atoms: _276  and  _277
REMARK  119  A    between atoms: _281  and  _282
REMARK  120  A    between atoms: _287  and  _289
REMARK  121  A    between atoms: _289  and  _290
REMARK  122  A    between atoms: _289  and  _292
REMARK  123  A    between atoms: _292  and  _293
REMARK  124  A    between atoms: _300  and  _301
REMARK  125  A    between atoms: _306  and  _308
REMARK  126  A    between atoms: _308  and  _309
REMARK  127  A    between atoms: _308  and  _311
REMARK  128  A    between atoms: _311  and  _312
REMARK  129  A    between atoms: _315  and  _317
REMARK  130  A    between atoms: _317  and  _318
REMARK  131  A    between atoms: _317  and  _320
REMARK  132  A    between atoms: _320  and  _321
REMARK  133  A    between atoms: _331  and  _333
REMARK  134  A    between atoms: _333  and  _334
REMARK  135  A    between atoms: _333  and  _336
REMARK  136  A    between atoms: _336  and  _337
REMARK  137  A    between atoms: _341  and  ZN_342
REMARK                            x       y       z     vdW  Elec       q    Type
REMARK                         _______ _______ _______ _____ _____    ______ ____
ROOT
ATOM      1  CA  ASP A   1     -42.152  24.698 -22.232  0.00  0.00    +0.144 C 
ENDROOT
BRANCH   1   2
ATOM      2  N   ASP A   1     -41.046  24.601 -23.218  0.00  0.00    -0.239 NA
ATOM      3  H   ASP A   1     -41.022  25.297 -23.990  0.00  0.00    +0.142 HD
ENDBRANCH   1   2
BRANCH   1   4
ATOM      4  C   ASP A   1     -43.122  23.577 -22.458  0.00  0.00    +0.225 C 
ATOM      5  O   ASP A   1     -43.209  23.084 -23.574  0.00  0.00    -0.287 OA
ENDBRANCH   1   4
BRANCH   1   6
ATOM      6  CB  ASP A   1     -42.951  25.999 -22.325  0.00  0.00    +0.139 C 
BRANCH   6   7
ATOM      7  CG  ASP A   1     -43.580  26.219 -23.710  0.00  0.00    +0.367 C 
ATOM      8  OD2 ASP A   1     -44.788  26.501 -23.768  0.00  0.00    -0.246 OA
ATOM      9  OD1 ASP A   1     -42.864  26.150 -24.729  0.00  0.00    -0.246 OA
ENDBRANCH   6   7
ENDBRANCH   1   6
TORSDOF 4
REMARK  Name = ../refined-set-2016/4f9u/4f9u_pocket.pdb
REMARK  137 active torsions:
REMARK  status: ('A' for Active; 'I' for Inactive)
REMARK    1  A    between atoms: _1  and  _3
REMARK    2  A    between atoms: _3  and  _4
REMARK    3  A    between atoms: _3  and  _6
REMARK    4  A    between atoms: _6  and  _7
REMARK    5  A    between atoms: _12  and  _14
REMARK    6  A    between atoms: _14  and  _15
REMARK    7  A    between atoms: _14  and  _17
REMARK    8  A    between atoms: _17  and  _18
REMARK    9  A    between atoms: _21  and  _23
REMARK   10  A    between atoms: _23  and  _24
REMARK   11  A    between atoms: _23  and  _26
REMARK   12  A    between atoms: _26  and  _27
REMARK   13  A    between atoms: _27  and  _28
REMARK   14  A    between atoms: _28  and  _29
REMARK   15  A    between atoms: _29  and  _30
REMARK   16  A    between atoms: _34  and  _36
REMARK   17  A    between atoms: _36  and  _37
REMARK   18  A    between atoms: _36  and  _39
REMARK   19  A    between atoms: _39  and  _40
REMARK   20  A    between atoms: _46  and  _48
REMARK   21  A    between atoms: _48  and  _49
REMARK   22  A    between atoms: _48  and  _51
REMARK   23  A    between atoms: _51  and  _52
REMARK   24  A    between atoms: _55  and  _57
REMARK   25  A    between atoms: _57  and  _58
REMARK   26  A    between atoms: _57  and  _60
REMARK   27  A    between atoms: _60  and  _61
REMARK   28  A    between atoms: _61  and  _63
REMARK   29  A    between atoms: _63  and  ZN_342
REMARK   30  A    between atoms: _64  and  _66
REMARK   31  A    between atoms: _66  and  _67
REMARK   32  A    between atoms: _66  and  _69
REMARK   33  A    between atoms: _69  and  _70
REMARK   34  A    between atoms: _72  and  _74
REMARK   35  A    between atoms: _74  and  _75
REMARK   36  A    between atoms: _74  and  _77
REMARK   37  A    between atoms: _77  and  _78
REMARK   38  A    between atoms: _78  and  _79
REMARK   39  A    between atoms: _82  and  _84
REMARK   40  A    between atoms: _84  and  _85
REMARK   41  A    between atoms: _84  and  _87
REMARK   42  A    between atoms: _87  and  _88
REMARK   43  A    between atoms: _88  and  _89
REMARK   44  A    between atoms: _89  and  _90
REMARK   45  A    between atoms: _90  and  ZN_342
REMARK   46  A    between atoms: _92  and  _94
REMARK   47  A    between atoms: _94  and  _95
REMARK   48  A    between atoms: _98  and  _100
REMARK   49  A    between atoms: _100  and  _101
REMARK   50  A    between atoms: _100  and  _103
REMARK   51  A    between atoms: _103  and  _104
REMARK   52  A    between atoms: _114  and  _116
REMARK   53  A    between atoms: _116  and  _117
REMARK   54  A    between atoms: _116  and  _119
REMARK   55  A    between atoms: _119  and  _120
REMARK   56  A    between atoms: _122  and  _124
REMARK   57  A    between atoms: _124  and  _125
REMARK   58  A    between atoms: _124  and  _127
REMARK   59  A    between atoms: _130  and  _132
REMARK   60  A    between atoms: _132  and  _133
REMARK   61  A    between atoms: _132  and  _135
REMARK   62  A    between atoms: _135  and  _136
REMARK   63  A    between atoms: _139  and  _141
REMARK   64  A    between atoms: _141  and  _142
REMARK   65  A    between atoms: _141  and  _144
REMARK   66  A    between atoms: _144  and  _145
REMARK   67  A    between atoms: _148  and  _150
REMARK   68  A    between atoms: _150  and  _151
REMARK   69  A    between atoms: _150  and  _153
REMARK   70  A    between atoms: _153  and  _154
REMARK   71  A    between atoms: _157  and  _159
REMARK   72  A    between atoms: _159  and  _160
REMARK   73  A    between atoms: _159  and  _162
REMARK   74  A    between atoms: _162  and  _163
REMARK   75  A    between atoms: _169  and  _171
REMARK   76  A    between atoms: _171  and  _172
REMARK   77  A    between atoms: _174  and  _176
REMARK   78  A    between atoms: _176  and  _177
REMARK   79  A    between atoms: _176  and  _179
REMARK   80  A    between atoms: _179  and  _180
REMARK   81  A    between atoms: _183  and  _185
REMARK   82  A    between atoms: _185  and  _186
REMARK   83  A    between atoms: _185  and  _188
REMARK   84  A    between atoms: _191  and  _193
REMARK   85  A    between atoms: _193  and  _194
REMARK   86  A    between atoms: _193  and  _196
REMARK   87  A    between atoms: _196  and  _197
REMARK   88  A    between atoms: _200  and  _202
REMARK   89  A    between atoms: _202  and  _203
REMARK   90  A    between atoms: _202  and  _205
REMARK   91  A    between atoms: _205  and  _206
REMARK   92  A    between atoms: _209  and  _211
REMARK   93  A    between atoms: _211  and  _212
REMARK   94  A    between atoms: _211  and  _214
REMARK   95  A    between atoms: _214  and  _215
REMARK   96  A    between atoms: _218  and  _220
REMARK   97  A    between atoms: _220  and  _221
REMARK   98  A    between atoms: _220  and  _223
REMARK   99  A    between atoms: _223  and  _224
REMARK  100  A    between atoms: _229  and  _231
REMARK  101  A    between atoms: _231  and  _232
REMARK  102  A    between atoms: _231  and  _234
REMARK  103  A    between atoms: _234  and  _235
REMARK  104  A    between atoms: _235  and  _236
REMARK  105  A    between atoms: _236  and  _237
REMARK  106  A    between atoms: _246  and  _248
REMARK  107  A    between atoms: _248  and  _249
REMARK  108  A    between atoms: _248  and  _251
REMARK  109  A    between atoms: _251  and  _252
REMARK  110  A    between atoms: _257  and  _259
REMARK  111  A    between atoms: _259  and  _260
REMARK  112  A    between atoms: _259  and  _262
REMARK  113  A    between atoms: _265  and  _267
REMARK  114  A    between atoms: _267  and  _268
REMARK  115  A    between atoms: _271  and  _273
REMARK  116  A    between atoms: _273  and  _274
REMARK  117  A    between atoms: _273  and  _276
REMARK  118  A    between atoms: _276  and  _277
REMARK  119  A    between atoms: _281  and  _282
REMARK  120  A    between atoms: _287  and  _289
REMARK  121  A    between atoms: _289  and  _290
REMARK  122  A    between atoms: _289  and  _292
REMARK  123  A    between atoms: _292  and  _293
REMARK  124  A    between atoms: _300  and  _301
REMARK  125  A    between atoms: _306  and  _308
REMARK  126  A    between atoms: _308  and  _309
REMARK  127  A    between atoms: _308  and  _311
REMARK  128  A    between atoms: _311  and  _312
REMARK  129  A    between atoms: _315  and  _317
REMARK  130  A    between atoms: _317  and  _318
REMARK  131  A    between atoms: _317  and  _320
REMARK  132  A    between atoms: _320  and  _321
REMARK  133  A    between atoms: _331  and  _333
REMARK  134  A    between atoms: _333  and  _334
REMARK  135  A    between atoms: _333  and  _336
REMARK  136  A    between atoms: _336  and  _337
REMARK  137  A    between atoms: _341  and  ZN_342
REMARK                            x       y       z     vdW  Elec       q    Type
REMARK                         _______ _______ _______ _____ _____    ______ ____
ROOT
ATOM      1  CG  LYS A   1     -50.999  23.051 -22.485  0.00  0.00    -0.000 C 
ENDROOT
BRANCH   1   2
ATOM      2  CB  LYS A   1     -49.583  22.482 -22.514  0.00  0.00    +0.025 C 
BRANCH   2   3
ATOM      3  CA  LYS A   1     -48.637  23.064 -21.487  0.00  0.00    +0.133 C 
BRANCH   3   4
ATOM      4  N   LYS A   1     -47.305  22.486 -21.649  0.00  0.00    -0.239 NA
ATOM      5  H   LYS A   1     -47.219  21.614 -22.209  0.00  0.00    +0.142 HD
ENDBRANCH   3   4
BRANCH   3   6
ATOM      6  C   LYS A   1     -49.191  22.907 -20.060  0.00  0.00    +0.224 C 
ATOM      7  O   LYS A   1     -49.102  21.847 -19.432  0.00  0.00    -0.287 OA
ENDBRANCH   3   6
ENDBRANCH   2   3
ENDBRANCH   1   2
BRANCH   1   8
ATOM      8  CD  LYS A   1     -51.738  22.798 -23.780  0.00  0.00    -0.024 C 
BRANCH   8   9
ATOM      9  CE  LYS A   1     -53.177  23.302 -23.771  0.00  0.00    -0.086 C 
BRANCH   9  10
ATOM     10  NZ  LYS A   1     -53.185  24.785 -23.722  0.00  0.00    +0.380 N 
ATOM     11  HZ1 LYS A   1     -52.701  25.105 -22.859  0.00  0.00    -0.089 HD
ATOM     12  HZ2 LYS A   1     -54.168  25.125 -23.716  0.00  0.00    -0.089 HD
ATOM     13  HZ3 LYS A   1     -52.692  25.161 -24.557  0.00  0.00    -0.089 HD
ENDBRANCH   9  10
ENDBRANCH   8   9
ENDBRANCH   1   8
TORSDOF 7
REMARK  Name = ../refined-set-2016/4f9u/4f9u_pocket.pdb
REMARK  137 active torsions:
REMARK  status: ('A' for Active; 'I' for Inactive)
REMARK    1  A    between atoms: _1  and  _3
REMARK    2  A    between atoms: _3  and  _4
REMARK    3  A    between atoms: _3  and  _6
REMARK    4  A    between atoms: _6  and  _7
REMARK    5  A    between atoms: _12  and  _14
REMARK    6  A    between atoms: _14  and  _15
REMARK    7  A    between atoms: _14  and  _17
REMARK    8  A    between atoms: _17  and  _18
REMARK    9  A    between atoms: _21  and  _23
REMARK   10  A    between atoms: _23  and  _24
REMARK   11  A    between atoms: _23  and  _26
REMARK   12  A    between atoms: _26  and  _27
REMARK   13  A    between atoms: _27  and  _28
REMARK   14  A    between atoms: _28  and  _29
REMARK   15  A    between atoms: _29  and  _30
REMARK   16  A    between atoms: _34  and  _36
REMARK   17  A    between atoms: _36  and  _37
REMARK   18  A    between atoms: _36  and  _39
REMARK   19  A    between atoms: _39  and  _40
REMARK   20  A    between atoms: _46  and  _48
REMARK   21  A    between atoms: _48  and  _49
REMARK   22  A    between atoms: _48  and  _51
REMARK   23  A    between atoms: _51  and  _52
REMARK   24  A    between atoms: _55  and  _57
REMARK   25  A    between atoms: _57  and  _58
REMARK   26  A    between atoms: _57  and  _60
REMARK   27  A    between atoms: _60  and  _61
REMARK   28  A    between atoms: _61  and  _63
REMARK   29  A    between atoms: _63  and  ZN_342
REMARK   30  A    between atoms: _64  and  _66
REMARK   31  A    between atoms: _66  and  _67
REMARK   32  A    between atoms: _66  and  _69
REMARK   33  A    between atoms: _69  and  _70
REMARK   34  A    between atoms: _72  and  _74
REMARK   35  A    between atoms: _74  and  _75
REMARK   36  A    between atoms: _74  and  _77
REMARK   37  A    between atoms: _77  and  _78
REMARK   38  A    between atoms: _78  and  _79
REMARK   39  A    between atoms: _82  and  _84
REMARK   40  A    between atoms: _84  and  _85
REMARK   41  A    between atoms: _84  and  _87
REMARK   42  A    between atoms: _87  and  _88
REMARK   43  A    between atoms: _88  and  _89
REMARK   44  A    between atoms: _89  and  _90
REMARK   45  A    between atoms: _90  and  ZN_342
REMARK   46  A    between atoms: _92  and  _94
REMARK   47  A    between atoms: _94  and  _95
REMARK   48  A    between atoms: _98  and  _100
REMARK   49  A    between atoms: _100  and  _101
REMARK   50  A    between atoms: _100  and  _103
REMARK   51  A    between atoms: _103  and  _104
REMARK   52  A    between atoms: _114  and  _116
REMARK   53  A    between atoms: _116  and  _117
REMARK   54  A    between atoms: _116  and  _119
REMARK   55  A    between atoms: _119  and  _120
REMARK   56  A    between atoms: _122  and  _124
REMARK   57  A    between atoms: _124  and  _125
REMARK   58  A    between atoms: _124  and  _127
REMARK   59  A    between atoms: _130  and  _132
REMARK   60  A    between atoms: _132  and  _133
REMARK   61  A    between atoms: _132  and  _135
REMARK   62  A    between atoms: _135  and  _136
REMARK   63  A    between atoms: _139  and  _141
REMARK   64  A    between atoms: _141  and  _142
REMARK   65  A    between atoms: _141  and  _144
REMARK   66  A    between atoms: _144  and  _145
REMARK   67  A    between atoms: _148  and  _150
REMARK   68  A    between atoms: _150  and  _151
REMARK   69  A    between atoms: _150  and  _153
REMARK   70  A    between atoms: _153  and  _154
REMARK   71  A    between atoms: _157  and  _159
REMARK   72  A    between atoms: _159  and  _160
REMARK   73  A    between atoms: _159  and  _162
REMARK   74  A    between atoms: _162  and  _163
REMARK   75  A    between atoms: _169  and  _171
REMARK   76  A    between atoms: _171  and  _172
REMARK   77  A    between atoms: _174  and  _176
REMARK   78  A    between atoms: _176  and  _177
REMARK   79  A    between atoms: _176  and  _179
REMARK   80  A    between atoms: _179  and  _180
REMARK   81  A    between atoms: _183  and  _185
REMARK   82  A    between atoms: _185  and  _186
REMARK   83  A    between atoms: _185  and  _188
REMARK   84  A    between atoms: _191  and  _193
REMARK   85  A    between atoms: _193  and  _194
REMARK   86  A    between atoms: _193  and  _196
REMARK   87  A    between atoms: _196  and  _197
REMARK   88  A    between atoms: _200  and  _202
REMARK   89  A    between atoms: _202  and  _203
REMARK   90  A    between atoms: _202  and  _205
REMARK   91  A    between atoms: _205  and  _206
REMARK   92  A    between atoms: _209  and  _211
REMARK   93  A    between atoms: _211  and  _212
REMARK   94  A    between atoms: _211  and  _214
REMARK   95  A    between atoms: _214  and  _215
REMARK   96  A    between atoms: _218  and  _220
REMARK   97  A    between atoms: _220  and  _221
REMARK   98  A    between atoms: _220  and  _223
REMARK   99  A    between atoms: _223  and  _224
REMARK  100  A    between atoms: _229  and  _231
REMARK  101  A    between atoms: _231  and  _232
REMARK  102  A    between atoms: _231  and  _234
REMARK  103  A    between atoms: _234  and  _235
REMARK  104  A    between atoms: _235  and  _236
REMARK  105  A    between atoms: _236  and  _237
REMARK  106  A    between atoms: _246  and  _248
REMARK  107  A    between atoms: _248  and  _249
REMARK  108  A    between atoms: _248  and  _251
REMARK  109  A    between atoms: _251  and  _252
REMARK  110  A    between atoms: _257  and  _259
REMARK  111  A    between atoms: _259  and  _260
REMARK  112  A    between atoms: _259  and  _262
REMARK  113  A    between atoms: _265  and  _267
REMARK  114  A    between atoms: _267  and  _268
REMARK  115  A    between atoms: _271  and  _273
REMARK  116  A    between atoms: _273  and  _274
REMARK  117  A    between atoms: _273  and  _276
REMARK  118  A    between atoms: _276  and  _277
REMARK  119  A    between atoms: _281  and  _282
REMARK  120  A    between atoms: _287  and  _289
REMARK  121  A    between atoms: _289  and  _290
REMARK  122  A    between atoms: _289  and  _292
REMARK  123  A    between atoms: _292  and  _293
REMARK  124  A    between atoms: _300  and  _301
REMARK  125  A    between atoms: _306  and  _308
REMARK  126  A    between atoms: _308  and  _309
REMARK  127  A    between atoms: _308  and  _311
REMARK  128  A    between atoms: _311  and  _312
REMARK  129  A    between atoms: _315  and  _317
REMARK  130  A    between atoms: _317  and  _318
REMARK  131  A    between atoms: _317  and  _320
REMARK  132  A    between atoms: _320  and  _321
REMARK  133  A    between atoms: _331  and  _333
REMARK  134  A    between atoms: _333  and  _334
REMARK  135  A    between atoms: _333  and  _336
REMARK  136  A    between atoms: _336  and  _337
REMARK  137  A    between atoms: _341  and  ZN_342
REMARK                            x       y       z     vdW  Elec       q    Type
REMARK                         _______ _______ _______ _____ _____    ______ ____
ROOT
ATOM      1  CB  PHE A   1     -49.025  17.626 -18.681  0.00  0.00    +0.051 C 
ENDROOT
BRANCH   1   2
ATOM      2  CG  PHE A   1     -48.944  17.601 -20.188  0.00  0.00    -0.020 A 
ATOM      3  CD2 PHE A   1     -48.222  18.579 -20.872  0.00  0.00    -0.004 A 
ATOM      4  CE2 PHE A   1     -48.154  18.562 -22.246  0.00  0.00    -0.000 A 
ATOM      5  CZ  PHE A   1     -48.807  17.587 -22.974  0.00  0.00    -0.000 A 
ATOM      6  CE1 PHE A   1     -49.516  16.598 -22.316  0.00  0.00    -0.000 A 
ATOM      7  CD1 PHE A   1     -49.593  16.619 -20.923  0.00  0.00    -0.004 A 
ENDBRANCH   1   2
BRANCH   1   8
ATOM      8  CA  PHE A   1     -48.114  16.581 -17.991  0.00  0.00    +0.137 C 
BRANCH   8   9
ATOM      9  N   PHE A   1     -48.318  16.590 -16.524  0.00  0.00    -0.239 NA
ATOM     10  H   PHE A   1     -49.104  17.143 -16.126  0.00  0.00    +0.142 HD
ENDBRANCH   8   9
BRANCH   8  11
ATOM     11  C   PHE A   1     -46.671  16.876 -18.356  0.00  0.00    +0.224 C 
ATOM     12  O   PHE A   1     -46.106  17.882 -17.926  0.00  0.00    -0.287 OA
ENDBRANCH   8  11
ENDBRANCH   1   8
TORSDOF 4
REMARK  Name = ../refined-set-2016/4f9u/4f9u_pocket.pdb
REMARK  137 active torsions:
REMARK  status: ('A' for Active; 'I' for Inactive)
REMARK    1  A    between atoms: _1  and  _3
REMARK    2  A    between atoms: _3  and  _4
REMARK    3  A    between atoms: _3  and  _6
REMARK    4  A    between atoms: _6  and  _7
REMARK    5  A    between atoms: _12  and  _14
REMARK    6  A    between atoms: _14  and  _15
REMARK    7  A    between atoms: _14  and  _17
REMARK    8  A    between atoms: _17  and  _18
REMARK    9  A    between atoms: _21  and  _23
REMARK   10  A    between atoms: _23  and  _24
REMARK   11  A    between atoms: _23  and  _26
REMARK   12  A    between atoms: _26  and  _27
REMARK   13  A    between atoms: _27  and  _28
REMARK   14  A    between atoms: _28  and  _29
REMARK   15  A    between atoms: _29  and  _30
REMARK   16  A    between atoms: _34  and  _36
REMARK   17  A    between atoms: _36  and  _37
REMARK   18  A    between atoms: _36  and  _39
REMARK   19  A    between atoms: _39  and  _40
REMARK   20  A    between atoms: _46  and  _48
REMARK   21  A    between atoms: _48  and  _49
REMARK   22  A    between atoms: _48  and  _51
REMARK   23  A    between atoms: _51  and  _52
REMARK   24  A    between atoms: _55  and  _57
REMARK   25  A    between atoms: _57  and  _58
REMARK   26  A    between atoms: _57  and  _60
REMARK   27  A    between atoms: _60  and  _61
REMARK   28  A    between atoms: _61  and  _63
REMARK   29  A    between atoms: _63  and  ZN_342
REMARK   30  A    between atoms: _64  and  _66
REMARK   31  A    between atoms: _66  and  _67
REMARK   32  A    between atoms: _66  and  _69
REMARK   33  A    between atoms: _69  and  _70
REMARK   34  A    between atoms: _72  and  _74
REMARK   35  A    between atoms: _74  and  _75
REMARK   36  A    between atoms: _74  and  _77
REMARK   37  A    between atoms: _77  and  _78
REMARK   38  A    between atoms: _78  and  _79
REMARK   39  A    between atoms: _82  and  _84
REMARK   40  A    between atoms: _84  and  _85
REMARK   41  A    between atoms: _84  and  _87
REMARK   42  A    between atoms: _87  and  _88
REMARK   43  A    between atoms: _88  and  _89
REMARK   44  A    between atoms: _89  and  _90
REMARK   45  A    between atoms: _90  and  ZN_342
REMARK   46  A    between atoms: _92  and  _94
REMARK   47  A    between atoms: _94  and  _95
REMARK   48  A    between atoms: _98  and  _100
REMARK   49  A    between atoms: _100  and  _101
REMARK   50  A    between atoms: _100  and  _103
REMARK   51  A    between atoms: _103  and  _104
REMARK   52  A    between atoms: _114  and  _116
REMARK   53  A    between atoms: _116  and  _117
REMARK   54  A    between atoms: _116  and  _119
REMARK   55  A    between atoms: _119  and  _120
REMARK   56  A    between atoms: _122  and  _124
REMARK   57  A    between atoms: _124  and  _125
REMARK   58  A    between atoms: _124  and  _127
REMARK   59  A    between atoms: _130  and  _132
REMARK   60  A    between atoms: _132  and  _133
REMARK   61  A    between atoms: _132  and  _135
REMARK   62  A    between atoms: _135  and  _136
REMARK   63  A    between atoms: _139  and  _141
REMARK   64  A    between atoms: _141  and  _142
REMARK   65  A    between atoms: _141  and  _144
REMARK   66  A    between atoms: _144  and  _145
REMARK   67  A    between atoms: _148  and  _150
REMARK   68  A    between atoms: _150  and  _151
REMARK   69  A    between atoms: _150  and  _153
REMARK   70  A    between atoms: _153  and  _154
REMARK   71  A    between atoms: _157  and  _159
REMARK   72  A    between atoms: _159  and  _160
REMARK   73  A    between atoms: _159  and  _162
REMARK   74  A    between atoms: _162  and  _163
REMARK   75  A    between atoms: _169  and  _171
REMARK   76  A    between atoms: _171  and  _172
REMARK   77  A    between atoms: _174  and  _176
REMARK   78  A    between atoms: _176  and  _177
REMARK   79  A    between atoms: _176  and  _179
REMARK   80  A    between atoms: _179  and  _180
REMARK   81  A    between atoms: _183  and  _185
REMARK   82  A    between atoms: _185  and  _186
REMARK   83  A    between atoms: _185  and  _188
REMARK   84  A    between atoms: _191  and  _193
REMARK   85  A    between atoms: _193  and  _194
REMARK   86  A    between atoms: _193  and  _196
REMARK   87  A    between atoms: _196  and  _197
REMARK   88  A    between atoms: _200  and  _202
REMARK   89  A    between atoms: _202  and  _203
REMARK   90  A    between atoms: _202  and  _205
REMARK   91  A    between atoms: _205  and  _206
REMARK   92  A    between atoms: _209  and  _211
REMARK   93  A    between atoms: _211  and  _212
REMARK   94  A    between atoms: _211  and  _214
REMARK   95  A    between atoms: _214  and  _215
REMARK   96  A    between atoms: _218  and  _220
REMARK   97  A    between atoms: _220  and  _221
REMARK   98  A    between atoms: _220  and  _223
REMARK   99  A    between atoms: _223  and  _224
REMARK  100  A    between atoms: _229  and  _231
REMARK  101  A    between atoms: _231  and  _232
REMARK  102  A    between atoms: _231  and  _234
REMARK  103  A    between atoms: _234  and  _235
REMARK  104  A    between atoms: _235  and  _236
REMARK  105  A    between atoms: _236  and  _237
REMARK  106  A    between atoms: _246  and  _248
REMARK  107  A    between atoms: _248  and  _249
REMARK  108  A    between atoms: _248  and  _251
REMARK  109  A    between atoms: _251  and  _252
REMARK  110  A    between atoms: _257  and  _259
REMARK  111  A    between atoms: _259  and  _260
REMARK  112  A    between atoms: _259  and  _262
REMARK  113  A    between atoms: _265  and  _267
REMARK  114  A    between atoms: _267  and  _268
REMARK  115  A    between atoms: _271  and  _273
REMARK  116  A    between atoms: _273  and  _274
REMARK  117  A    between atoms: _273  and  _276
REMARK  118  A    between atoms: _276  and  _277
REMARK  119  A    between atoms: _281  and  _282
REMARK  120  A    between atoms: _287  and  _289
REMARK  121  A    between atoms: _289  and  _290
REMARK  122  A    between atoms: _289  and  _292
REMARK  123  A    between atoms: _292  and  _293
REMARK  124  A    between atoms: _300  and  _301
REMARK  125  A    between atoms: _306  and  _308
REMARK  126  A    between atoms: _308  and  _309
REMARK  127  A    between atoms: _308  and  _311
REMARK  128  A    between atoms: _311  and  _312
REMARK  129  A    between atoms: _315  and  _317
REMARK  130  A    between atoms: _317  and  _318
REMARK  131  A    between atoms: _317  and  _320
REMARK  132  A    between atoms: _320  and  _321
REMARK  133  A    between atoms: _331  and  _333
REMARK  134  A    between atoms: _333  and  _334
REMARK  135  A    between atoms: _333  and  _336
REMARK  136  A    between atoms: _336  and  _337
REMARK  137  A    between atoms: _341  and  ZN_342
REMARK                            x       y       z     vdW  Elec       q    Type
REMARK                         _______ _______ _______ _____ _____    ______ ____
ROOT
ATOM      1 ZN   UNK A   2     -48.871  21.407 -27.340  0.00  0.00    +0.000 Zn
ENDROOT
BRANCH   1   2
ATOM      2  N   UNK A   2     -50.664  20.953 -26.868  0.00  0.00    +0.000 N 
ATOM      3  C   UNK A   2     -50.984  19.711 -26.374  0.00  0.00    +0.000 A 
ATOM      4  C   UNK A   2     -52.365  19.645 -26.289  0.00  0.00    +0.000 A 
ATOM      5  N   UNK A   2     -52.828  20.846 -26.706  0.00  0.00    +0.000 NA
ATOM      6  C   UNK A   2     -51.790  21.634 -27.060  0.00  0.00    +0.000 A 
BRANCH   4   7
ATOM      7  C   UNK A   2     -53.288  18.529 -25.818  0.00  0.00    +0.000 C 
BRANCH   7   8
ATOM      8  C   UNK A   2     -52.560  17.328 -25.199  0.00  0.00    +0.000 C 
BRANCH   8   9
ATOM      9  N   UNK A   2     -51.841  16.551 -26.223  0.00  0.00    +0.000 N 
ATOM     10  H   UNK A   2     -50.801  16.576 -26.218  0.00  0.00    +0.000 HD
ATOM     11  C   TRP A   1     -52.448  15.818 -27.155  0.00  0.00    +0.000 C 
ATOM     12  O   TRP A   1     -53.656  15.696 -27.222  0.00  0.00    +0.000 OA
BRANCH  11  13
ATOM     13  CA  TRP A   1     -51.555  15.150 -28.175  0.00  0.00    +0.000 C 
BRANCH  13  14
ATOM     14  N   TRP A   1     -51.771  13.692 -28.260  0.00  0.00    +0.000 NA
ATOM     15  H   TRP A   1     -51.979  13.251 -29.179  0.00  0.00    +0.000 HD
ENDBRANCH  13  14
BRANCH  13  16
ATOM     16  CB  TRP A   1     -51.763  15.753 -29.537  0.00  0.00    +0.000 C 
BRANCH  16  17
ATOM     17  CG  TRP A   1     -51.663  17.251 -29.612  0.00  0.00    +0.000 A 
ATOM     18  CD2 TRP A   1     -52.772  18.194 -29.680  0.00  0.00    +0.000 A 
ATOM     19  CE3 TRP A   1     -54.159  18.067 -29.683  0.00  0.00    +0.000 A 
ATOM     20  CZ3 TRP A   1     -54.942  19.226 -29.761  0.00  0.00    +0.000 A 
ATOM     21  CH2 TRP A   1     -54.354  20.501 -29.870  0.00  0.00    +0.000 A 
ATOM     22  CZ2 TRP A   1     -52.956  20.670 -29.907  0.00  0.00    +0.000 A 
ATOM     23  CE2 TRP A   1     -52.177  19.527 -29.809  0.00  0.00    +0.000 A 
ATOM     24  NE1 TRP A   1     -50.839  19.365 -29.797  0.00  0.00    +0.000 N 
ATOM     25  HE1 TRP A   1     -50.147  20.139 -29.854  0.00  0.00    +0.000 HD
ATOM     26  CD1 TRP A   1     -50.517  18.025 -29.698  0.00  0.00    +0.000 A 
ENDBRANCH  16  17
ENDBRANCH  13  16
ENDBRANCH  11  13
ENDBRANCH   8   9
BRANCH   8  27
ATOM     27  C   UNK A   2     -53.485  16.455 -24.350  0.00  0.00    +0.000 C 
ATOM     28  O   UNK A   2     -54.616  16.840 -24.017  0.00  0.00    +0.000 OA
ENDBRANCH   8  27
ENDBRANCH   7   8
ENDBRANCH   4   7
ENDBRANCH   1   2
BRANCH   1  29
ATOM     29  O   UNK A   2     -48.077  19.515 -27.388  0.00  0.00    +0.000 OA
BRANCH  29  30
ATOM     30  C   UNK A   2     -46.857  19.418 -27.640  0.00  0.00    +0.000 C 
ATOM     31  O   UNK A   2     -46.156  20.352 -28.053  0.00  0.00    +0.000 OA
BRANCH  30  32
ATOM     32  C   UNK A   2     -46.203  18.087 -27.441  0.00  0.00    +0.000 C 
BRANCH  32  33
ATOM     33  C   UNK A   2     -44.665  18.149 -27.485  0.00  0.00    +0.000 C 
BRANCH  33  35
ATOM     34  C   TRP A   1     -43.840  16.044 -28.431  0.00  0.00    +0.000 C 
ATOM     35  N   UNK A   2     -44.193  16.784 -27.375  0.00  0.00    +0.000 N 
ATOM     36  H   UNK A   2     -44.125  16.359 -26.428  0.00  0.00    +0.000 HD
ATOM     37  O   TRP A   1     -43.561  16.520 -29.546  0.00  0.00    +0.000 OA
BRANCH  34  38
ATOM     38  CA  TRP A   1     -43.822  14.527 -28.194  0.00  0.00    +0.000 C 
BRANCH  38  39
ATOM     39  CB  TRP A   1     -44.963  13.895 -29.007  0.00  0.00    +0.000 C 
ATOM     40  CG2 TRP A   1     -45.118  12.332 -28.761  0.00  0.00    +0.000 C 
BRANCH  39  41
ATOM     41  OG1 TRP A   1     -46.173  14.574 -28.722  0.00  0.00    +0.000 OA
ATOM     42  HG1 TRP A   1     -46.373  14.498 -27.755  0.00  0.00    +0.000 HD
ENDBRANCH  39  41
ENDBRANCH  38  39
BRANCH  38  43
ATOM     43  N   TRP A   1     -43.932  14.223 -26.761  0.00  0.00    +0.000 NA
ATOM     44  H   TRP A   1     -44.869  14.011 -26.363  0.00  0.00    +0.000 HD
ENDBRANCH  38  43
ENDBRANCH  34  38
ENDBRANCH  33  35
BRANCH  33  45
ATOM     45  C   UNK A   2     -44.020  19.011 -26.370  0.00  0.00    +0.000 C 
ATOM     46  O   UNK A   2     -44.664  19.402 -25.440  0.00  0.00    +0.000 OA
ATOM     47  N   ALA A   3     -42.707  19.270 -26.425  0.00  0.00    +0.000 N 
ATOM     48  H   ALA A   3     -42.298  19.804 -25.632  0.00  0.00    +0.000 HD
BRANCH  47  49
ATOM     49  CA  ALA A   3     -41.803  18.875 -27.488  0.00  0.00    +0.000 C 
BRANCH  49  50
ATOM     50  CB  ALA A   3     -40.471  18.446 -26.887  0.00  0.00    +0.000 C 
ATOM     51  O   ALA A   3     -39.411  18.828 -27.374  0.00  0.00    +0.000 OA
ENDBRANCH  49  50
BRANCH  49  52
ATOM     52  C   ALA A   3     -41.601  20.031 -28.514  0.00  0.00    +0.000 C 
BRANCH  52  53
ATOM     53  O   ALA A   3     -42.812  20.211 -29.207  0.00  0.00    +0.000 OA
ATOM     54  H   ALA A   3     -42.708  20.942 -29.866  0.00  0.00    +0.000 HD
ENDBRANCH  52  53
ENDBRANCH  49  52
ENDBRANCH  47  49
ENDBRANCH  33  45
ENDBRANCH  32  33
ENDBRANCH  30  32
ENDBRANCH  29  30
ENDBRANCH   1  29
BRANCH   1  55
ATOM     55  O   UNK A   2     -47.814  22.388 -26.155  0.00  0.00    +0.000 OA
BRANCH  55  56
ATOM     56  C   UNK A   2     -48.253  23.562 -25.877  0.00  0.00    +0.000 C 
ATOM     57  O   UNK A   2     -49.346  23.981 -26.324  0.00  0.00    +0.000 OA
BRANCH  56  58
ATOM     58  C   UNK A   2     -47.477  24.431 -24.912  0.00  0.00    +0.000 C 
BRANCH  58  59
ATOM     59  C   UNK A   2     -48.236  25.679 -24.404  0.00  0.00    +0.000 C 
BRANCH  59  60
ATOM     60  C   UNK A   2     -48.220  26.885 -25.365  0.00  0.00    +0.000 C 
BRANCH  60  61
ATOM     61  N   UNK A   2     -46.845  27.270 -25.728  0.00  0.00    +0.000 N 
ATOM     62  H   UNK A   2     -46.050  26.972 -25.127  0.00  0.00    +0.000 HD
ATOM     63  C   TRP A   1     -46.612  27.996 -26.818  0.00  0.00    +0.000 C 
ATOM     64  O   TRP A   1     -47.518  28.451 -27.516  0.00  0.00    +0.000 OA
BRANCH  63  65
ATOM     65  CA  TRP A   1     -45.159  28.244 -27.196  0.00  0.00    +0.000 C 
BRANCH  65  66
ATOM     66  N   TRP A   1     -44.343  28.645 -26.060  0.00  0.00    +0.000 NA
ATOM     67  H   TRP A   1     -43.514  28.071 -25.806  0.00  0.00    +0.000 HD
ENDBRANCH  65  66
BRANCH  65  68
ATOM     68  CB  TRP A   1     -44.574  27.001 -27.873  0.00  0.00    +0.000 C 
BRANCH  68  69
ATOM     69  CG  TRP A   1     -45.265  26.625 -29.196  0.00  0.00    +0.000 C 
BRANCH  69  70
ATOM     70  CD  TRP A   1     -46.278  25.494 -29.104  0.00  0.00    +0.000 C 
ATOM     71  OE2 TRP A   1     -46.701  25.123 -27.999  0.00  0.00    +0.000 OA
ATOM     72  OE1 TRP A   1     -46.681  24.969 -30.180  0.00  0.00    +0.000 OA
ENDBRANCH  69  70
ENDBRANCH  68  69
ENDBRANCH  65  68
ENDBRANCH  63  65
ENDBRANCH  60  61
BRANCH  60  73
ATOM     73  C   UNK A   2     -49.075  28.024 -24.787  0.00  0.00    +0.000 C 
ATOM     74  O   UNK A   2     -48.593  28.859 -24.035  0.00  0.00    +0.000 OA
ATOM     75  N   ALA A   3     -50.365  28.019 -25.158  0.00  0.00    +0.000 N 
ATOM     76  H   ALA A   3     -50.651  27.376 -25.924  0.00  0.00    +0.000 HD
BRANCH  75  77
ATOM     77  CA  ALA A   3     -51.389  28.861 -24.552  0.00  0.00    +0.000 C 
ATOM     78  CB  ALA A   3     -52.737  28.601 -25.214  0.00  0.00    +0.000 C 
BRANCH  77  79
ATOM     79  C   ALA A   3     -51.493  28.562 -23.049  0.00  0.00    +0.000 C 
ATOM     80  O   ALA A   3     -51.274  27.412 -22.616  0.00  0.00    +0.000 OA
ENDBRANCH  77  79
ENDBRANCH  75  77
ENDBRANCH  60  73
ENDBRANCH  59  60
ENDBRANCH  58  59
ENDBRANCH  56  58
ENDBRANCH  55  56
ENDBRANCH   1  55
TORSDOF 37
REMARK  Name = ../refined-set-2016/4f9u/4f9u_pocket.pdb
REMARK  137 active torsions:
REMARK  status: ('A' for Active; 'I' for Inactive)
REMARK    1  A    between atoms: _1  and  _3
REMARK    2  A    between atoms: _3  and  _4
REMARK    3  A    between atoms: _3  and  _6
REMARK    4  A    between atoms: _6  and  _7
REMARK    5  A    between atoms: _12  and  _14
REMARK    6  A    between atoms: _14  and  _15
REMARK    7  A    between atoms: _14  and  _17
REMARK    8  A    between atoms: _17  and  _18
REMARK    9  A    between atoms: _21  and  _23
REMARK   10  A    between atoms: _23  and  _24
REMARK   11  A    between atoms: _23  and  _26
REMARK   12  A    between atoms: _26  and  _27
REMARK   13  A    between atoms: _27  and  _28
REMARK   14  A    between atoms: _28  and  _29
REMARK   15  A    between atoms: _29  and  _30
REMARK   16  A    between atoms: _34  and  _36
REMARK   17  A    between atoms: _36  and  _37
REMARK   18  A    between atoms: _36  and  _39
REMARK   19  A    between atoms: _39  and  _40
REMARK   20  A    between atoms: _46  and  _48
REMARK   21  A    between atoms: _48  and  _49
REMARK   22  A    between atoms: _48  and  _51
REMARK   23  A    between atoms: _51  and  _52
REMARK   24  A    between atoms: _55  and  _57
REMARK   25  A    between atoms: _57  and  _58
REMARK   26  A    between atoms: _57  and  _60
REMARK   27  A    between atoms: _60  and  _61
REMARK   28  A    between atoms: _61  and  _63
REMARK   29  A    between atoms: _63  and  ZN_342
REMARK   30  A    between atoms: _64  and  _66
REMARK   31  A    between atoms: _66  and  _67
REMARK   32  A    between atoms: _66  and  _69
REMARK   33  A    between atoms: _69  and  _70
REMARK   34  A    between atoms: _72  and  _74
REMARK   35  A    between atoms: _74  and  _75
REMARK   36  A    between atoms: _74  and  _77
REMARK   37  A    between atoms: _77  and  _78
REMARK   38  A    between atoms: _78  and  _79
REMARK   39  A    between atoms: _82  and  _84
REMARK   40  A    between atoms: _84  and  _85
REMARK   41  A    between atoms: _84  and  _87
REMARK   42  A    between atoms: _87  and  _88
REMARK   43  A    between atoms: _88  and  _89
REMARK   44  A    between atoms: _89  and  _90
REMARK   45  A    between atoms: _90  and  ZN_342
REMARK   46  A    between atoms: _92  and  _94
REMARK   47  A    between atoms: _94  and  _95
REMARK   48  A    between atoms: _98  and  _100
REMARK   49  A    between atoms: _100  and  _101
REMARK   50  A    between atoms: _100  and  _103
REMARK   51  A    between atoms: _103  and  _104
REMARK   52  A    between atoms: _114  and  _116
REMARK   53  A    between atoms: _116  and  _117
REMARK   54  A    between atoms: _116  and  _119
REMARK   55  A    between atoms: _119  and  _120
REMARK   56  A    between atoms: _122  and  _124
REMARK   57  A    between atoms: _124  and  _125
REMARK   58  A    between atoms: _124  and  _127
REMARK   59  A    between atoms: _130  and  _132
REMARK   60  A    between atoms: _132  and  _133
REMARK   61  A    between atoms: _132  and  _135
REMARK   62  A    between atoms: _135  and  _136
REMARK   63  A    between atoms: _139  and  _141
REMARK   64  A    between atoms: _141  and  _142
REMARK   65  A    between atoms: _141  and  _144
REMARK   66  A    between atoms: _144  and  _145
REMARK   67  A    between atoms: _148  and  _150
REMARK   68  A    between atoms: _150  and  _151
REMARK   69  A    between atoms: _150  and  _153
REMARK   70  A    between atoms: _153  and  _154
REMARK   71  A    between atoms: _157  and  _159
REMARK   72  A    between atoms: _159  and  _160
REMARK   73  A    between atoms: _159  and  _162
REMARK   74  A    between atoms: _162  and  _163
REMARK   75  A    between atoms: _169  and  _171
REMARK   76  A    between atoms: _171  and  _172
REMARK   77  A    between atoms: _174  and  _176
REMARK   78  A    between atoms: _176  and  _177
REMARK   79  A    between atoms: _176  and  _179
REMARK   80  A    between atoms: _179  and  _180
REMARK   81  A    between atoms: _183  and  _185
REMARK   82  A    between atoms: _185  and  _186
REMARK   83  A    between atoms: _185  and  _188
REMARK   84  A    between atoms: _191  and  _193
REMARK   85  A    between atoms: _193  and  _194
REMARK   86  A    between atoms: _193  and  _196
REMARK   87  A    between atoms: _196  and  _197
REMARK   88  A    between atoms: _200  and  _202
REMARK   89  A    between atoms: _202  and  _203
REMARK   90  A    between atoms: _202  and  _205
REMARK   91  A    between atoms: _205  and  _206
REMARK   92  A    between atoms: _209  and  _211
REMARK   93  A    between atoms: _211  and  _212
REMARK   94  A    between atoms: _211  and  _214
REMARK   95  A    between atoms: _214  and  _215
REMARK   96  A    between atoms: _218  and  _220
REMARK   97  A    between atoms: _220  and  _221
REMARK   98  A    between atoms: _220  and  _223
REMARK   99  A    between atoms: _223  and  _224
REMARK  100  A    between atoms: _229  and  _231
REMARK  101  A    between atoms: _231  and  _232
REMARK  102  A    between atoms: _231  and  _234
REMARK  103  A    between atoms: _234  and  _235
REMARK  104  A    between atoms: _235  and  _236
REMARK  105  A    between atoms: _236  and  _237
REMARK  106  A    between atoms: _246  and  _248
REMARK  107  A    between atoms: _248  and  _249
REMARK  108  A    between atoms: _248  and  _251
REMARK  109  A    between atoms: _251  and  _252
REMARK  110  A    between atoms: _257  and  _259
REMARK  111  A    between atoms: _259  and  _260
REMARK  112  A    between atoms: _259  and  _262
REMARK  113  A    between atoms: _265  and  _267
REMARK  114  A    between atoms: _267  and  _268
REMARK  115  A    between atoms: _271  and  _273
REMARK  116  A    between atoms: _273  and  _274
REMARK  117  A    between atoms: _273  and  _276
REMARK  118  A    between atoms: _276  and  _277
REMARK  119  A    between atoms: _281  and  _282
REMARK  120  A    between atoms: _287  and  _289
REMARK  121  A    between atoms: _289  and  _290
REMARK  122  A    between atoms: _289  and  _292
REMARK  123  A    between atoms: _292  and  _293
REMARK  124  A    between atoms: _300  and  _301
REMARK  125  A    between atoms: _306  and  _308
REMARK  126  A    between atoms: _308  and  _309
REMARK  127  A    between atoms: _308  and  _311
REMARK  128  A    between atoms: _311  and  _312
REMARK  129  A    between atoms: _315  and  _317
REMARK  130  A    between atoms: _317  and  _318
REMARK  131  A    between atoms: _317  and  _320
REMARK  132  A    between atoms: _320  and  _321
REMARK  133  A    between atoms: _331  and  _333
REMARK  134  A    between atoms: _333  and  _334
REMARK  135  A    between atoms: _333  and  _336
REMARK  136  A    between atoms: _336  and  _337
REMARK  137  A    between atoms: _341  and  ZN_342
REMARK                            x       y       z     vdW  Elec       q    Type
REMARK                         _______ _______ _______ _____ _____    ______ ____
ROOT
ATOM      1  CG  TRP A   1     -53.435  28.000 -30.003  0.00  0.00    -0.002 A 
ATOM      2  CD2 TRP A   1     -51.987  27.752 -29.959  0.00  0.00    +0.013 A 
ATOM      3  CE3 TRP A   1     -51.121  27.259 -29.013  0.00  0.00    +0.001 A 
ATOM      4  CZ3 TRP A   1     -49.765  27.174 -29.325  0.00  0.00    +0.000 A 
ATOM      5  CH2 TRP A   1     -49.279  27.585 -30.574  0.00  0.00    +0.001 A 
ATOM      6  CZ2 TRP A   1     -50.128  28.102 -31.557  0.00  0.00    +0.017 A 
ATOM      7  CE2 TRP A   1     -51.457  28.205 -31.243  0.00  0.00    +0.056 A 
ATOM      8  NE1 TRP A   1     -52.518  28.636 -31.976  0.00  0.00    -0.352 N 
ATOM      9  HE1 TRP A   1     -52.457  28.993 -32.951  0.00  0.00    +0.166 HD
ATOM     10  CD1 TRP A   1     -53.679  28.535 -31.254  0.00  0.00    +0.068 A 
ENDROOT
BRANCH   1  11
ATOM     11  CB  TRP A   1     -54.439  27.701 -28.918  0.00  0.00    +0.053 C 
BRANCH  11  12
ATOM     12  CA  TRP A   1     -54.859  28.926 -28.122  0.00  0.00    +0.137 C 
BRANCH  12  13
ATOM     13  N   TRP A   1     -55.623  28.518 -26.927  0.00  0.00    -0.239 NA
ATOM     14  H   TRP A   1     -55.799  27.507 -26.760  0.00  0.00    +0.142 HD
ENDBRANCH  12  13
BRANCH  12  15
ATOM     15  C   TRP A   1     -55.595  29.914 -29.025  0.00  0.00    +0.224 C 
ATOM     16  O   TRP A   1     -56.646  29.591 -29.654  0.00  0.00    -0.287 OA
ENDBRANCH  12  15
ENDBRANCH  11  12
ENDBRANCH   1  11
TORSDOF 4
REMARK  Name = ../refined-set-2016/4f9u/4f9u_pocket.pdb
REMARK  137 active torsions:
REMARK  status: ('A' for Active; 'I' for Inactive)
REMARK    1  A    between atoms: _1  and  _3
REMARK    2  A    between atoms: _3  and  _4
REMARK    3  A    between atoms: _3  and  _6
REMARK    4  A    between atoms: _6  and  _7
REMARK    5  A    between atoms: _12  and  _14
REMARK    6  A    between atoms: _14  and  _15
REMARK    7  A    between atoms: _14  and  _17
REMARK    8  A    between atoms: _17  and  _18
REMARK    9  A    between atoms: _21  and  _23
REMARK   10  A    between atoms: _23  and  _24
REMARK   11  A    between atoms: _23  and  _26
REMARK   12  A    between atoms: _26  and  _27
REMARK   13  A    between atoms: _27  and  _28
REMARK   14  A    between atoms: _28  and  _29
REMARK   15  A    between atoms: _29  and  _30
REMARK   16  A    between atoms: _34  and  _36
REMARK   17  A    between atoms: _36  and  _37
REMARK   18  A    between atoms: _36  and  _39
REMARK   19  A    between atoms: _39  and  _40
REMARK   20  A    between atoms: _46  and  _48
REMARK   21  A    between atoms: _48  and  _49
REMARK   22  A    between atoms: _48  and  _51
REMARK   23  A    between atoms: _51  and  _52
REMARK   24  A    between atoms: _55  and  _57
REMARK   25  A    between atoms: _57  and  _58
REMARK   26  A    between atoms: _57  and  _60
REMARK   27  A    between atoms: _60  and  _61
REMARK   28  A    between atoms: _61  and  _63
REMARK   29  A    between atoms: _63  and  ZN_342
REMARK   30  A    between atoms: _64  and  _66
REMARK   31  A    between atoms: _66  and  _67
REMARK   32  A    between atoms: _66  and  _69
REMARK   33  A    between atoms: _69  and  _70
REMARK   34  A    between atoms: _72  and  _74
REMARK   35  A    between atoms: _74  and  _75
REMARK   36  A    between atoms: _74  and  _77
REMARK   37  A    between atoms: _77  and  _78
REMARK   38  A    between atoms: _78  and  _79
REMARK   39  A    between atoms: _82  and  _84
REMARK   40  A    between atoms: _84  and  _85
REMARK   41  A    between atoms: _84  and  _87
REMARK   42  A    between atoms: _87  and  _88
REMARK   43  A    between atoms: _88  and  _89
REMARK   44  A    between atoms: _89  and  _90
REMARK   45  A    between atoms: _90  and  ZN_342
REMARK   46  A    between atoms: _92  and  _94
REMARK   47  A    between atoms: _94  and  _95
REMARK   48  A    between atoms: _98  and  _100
REMARK   49  A    between atoms: _100  and  _101
REMARK   50  A    between atoms: _100  and  _103
REMARK   51  A    between atoms: _103  and  _104
REMARK   52  A    between atoms: _114  and  _116
REMARK   53  A    between atoms: _116  and  _117
REMARK   54  A    between atoms: _116  and  _119
REMARK   55  A    between atoms: _119  and  _120
REMARK   56  A    between atoms: _122  and  _124
REMARK   57  A    between atoms: _124  and  _125
REMARK   58  A    between atoms: _124  and  _127
REMARK   59  A    between atoms: _130  and  _132
REMARK   60  A    between atoms: _132  and  _133
REMARK   61  A    between atoms: _132  and  _135
REMARK   62  A    between atoms: _135  and  _136
REMARK   63  A    between atoms: _139  and  _141
REMARK   64  A    between atoms: _141  and  _142
REMARK   65  A    between atoms: _141  and  _144
REMARK   66  A    between atoms: _144  and  _145
REMARK   67  A    between atoms: _148  and  _150
REMARK   68  A    between atoms: _150  and  _151
REMARK   69  A    between atoms: _150  and  _153
REMARK   70  A    between atoms: _153  and  _154
REMARK   71  A    between atoms: _157  and  _159
REMARK   72  A    between atoms: _159  and  _160
REMARK   73  A    between atoms: _159  and  _162
REMARK   74  A    between atoms: _162  and  _163
REMARK   75  A    between atoms: _169  and  _171
REMARK   76  A    between atoms: _171  and  _172
REMARK   77  A    between atoms: _174  and  _176
REMARK   78  A    between atoms: _176  and  _177
REMARK   79  A    between atoms: _176  and  _179
REMARK   80  A    between atoms: _179  and  _180
REMARK   81  A    between atoms: _183  and  _185
REMARK   82  A    between atoms: _185  and  _186
REMARK   83  A    between atoms: _185  and  _188
REMARK   84  A    between atoms: _191  and  _193
REMARK   85  A    between atoms: _193  and  _194
REMARK   86  A    between atoms: _193  and  _196
REMARK   87  A    between atoms: _196  and  _197
REMARK   88  A    between atoms: _200  and  _202
REMARK   89  A    between atoms: _202  and  _203
REMARK   90  A    between atoms: _202  and  _205
REMARK   91  A    between atoms: _205  and  _206
REMARK   92  A    between atoms: _209  and  _211
REMARK   93  A    between atoms: _211  and  _212
REMARK   94  A    between atoms: _211  and  _214
REMARK   95  A    between atoms: _214  and  _215
REMARK   96  A    between atoms: _218  and  _220
REMARK   97  A    between atoms: _220  and  _221
REMARK   98  A    between atoms: _220  and  _223
REMARK   99  A    between atoms: _223  and  _224
REMARK  100  A    between atoms: _229  and  _231
REMARK  101  A    between atoms: _231  and  _232
REMARK  102  A    between atoms: _231  and  _234
REMARK  103  A    between atoms: _234  and  _235
REMARK  104  A    between atoms: _235  and  _236
REMARK  105  A    between atoms: _236  and  _237
REMARK  106  A    between atoms: _246  and  _248
REMARK  107  A    between atoms: _248  and  _249
REMARK  108  A    between atoms: _248  and  _251
REMARK  109  A    between atoms: _251  and  _252
REMARK  110  A    between atoms: _257  and  _259
REMARK  111  A    between atoms: _259  and  _260
REMARK  112  A    between atoms: _259  and  _262
REMARK  113  A    between atoms: _265  and  _267
REMARK  114  A    between atoms: _267  and  _268
REMARK  115  A    between atoms: _271  and  _273
REMARK  116  A    between atoms: _273  and  _274
REMARK  117  A    between atoms: _273  and  _276
REMARK  118  A    between atoms: _276  and  _277
REMARK  119  A    between atoms: _281  and  _282
REMARK  120  A    between atoms: _287  and  _289
REMARK  121  A    between atoms: _289  and  _290
REMARK  122  A    between atoms: _289  and  _292
REMARK  123  A    between atoms: _292  and  _293
REMARK  124  A    between atoms: _300  and  _301
REMARK  125  A    between atoms: _306  and  _308
REMARK  126  A    between atoms: _308  and  _309
REMARK  127  A    between atoms: _308  and  _311
REMARK  128  A    between atoms: _311  and  _312
REMARK  129  A    between atoms: _315  and  _317
REMARK  130  A    between atoms: _317  and  _318
REMARK  131  A    between atoms: _317  and  _320
REMARK  132  A    between atoms: _320  and  _321
REMARK  133  A    between atoms: _331  and  _333
REMARK  134  A    between atoms: _333  and  _334
REMARK  135  A    between atoms: _333  and  _336
REMARK  136  A    between atoms: _336  and  _337
REMARK  137  A    between atoms: _341  and  ZN_342
REMARK                            x       y       z     vdW  Elec       q    Type
REMARK                         _______ _______ _______ _____ _____    ______ ____
ROOT
ATOM      1  C   SER A   1     -48.286  32.028 -28.202  0.00  0.00    +0.241 C 
ATOM      2  O   SER A   1     -48.148  33.281 -28.207  0.00  0.00    -0.274 OA
ATOM      3  N   VAL A   2     -47.286  31.184 -28.407  0.00  0.00    -0.298 N 
ATOM      4  H   VAL A   2     -47.420  30.195 -28.114  0.00  0.00    +0.150 HD
ENDROOT
BRANCH   1   5
ATOM      5  CA  SER A   1     -49.653  31.380 -27.913  0.00  0.00    +0.174 C 
BRANCH   5   6
ATOM      6  N   SER A   1     -50.479  32.327 -27.125  0.00  0.00    -0.236 NA
ATOM      7  H   SER A   1     -50.012  33.177 -26.750  0.00  0.00    +0.142 HD
ENDBRANCH   5   6
BRANCH   5   8
ATOM      8  CB  SER A   1     -50.338  31.028 -29.242  0.00  0.00    +0.163 C 
BRANCH   8   9
ATOM      9  OG  SER A   1     -50.389  32.197 -30.054  0.00  0.00    -0.380 OA
ATOM     10  H   SER A   1     -50.905  32.900 -29.586  0.00  0.00    +0.211 HD
ENDBRANCH   8   9
ENDBRANCH   5   8
ENDBRANCH   1   5
BRANCH   3  11
ATOM     11  CA  VAL A   2     -45.997  31.547 -29.021  0.00  0.00    +0.137 C 
BRANCH  11  12
ATOM     12  CB  VAL A   2     -46.076  31.512 -30.588  0.00  0.00    +0.026 C 
ATOM     13  CG2 VAL A   2     -46.568  30.148 -31.113  0.00  0.00    +0.002 C 
ATOM     14  CG1 VAL A   2     -46.975  32.605 -31.158  0.00  0.00    +0.002 C 
ENDBRANCH  11  12
BRANCH  11  15
ATOM     15  C   VAL A   2     -45.349  32.843 -28.469  0.00  0.00    +0.227 C 
ATOM     16  O   VAL A   2     -44.730  33.633 -29.195  0.00  0.00    -0.286 OA
ENDBRANCH  11  15
ENDBRANCH   3  11
TORSDOF 7
REMARK  Name = ../refined-set-2016/4f9u/4f9u_pocket.pdb
REMARK  137 active torsions:
REMARK  status: ('A' for Active; 'I' for Inactive)
REMARK    1  A    between atoms: _1  and  _3
REMARK    2  A    between atoms: _3  and  _4
REMARK    3  A    between atoms: _3  and  _6
REMARK    4  A    between atoms: _6  and  _7
REMARK    5  A    between atoms: _12  and  _14
REMARK    6  A    between atoms: _14  and  _15
REMARK    7  A    between atoms: _14  and  _17
REMARK    8  A    between atoms: _17  and  _18
REMARK    9  A    between atoms: _21  and  _23
REMARK   10  A    between atoms: _23  and  _24
REMARK   11  A    between atoms: _23  and  _26
REMARK   12  A    between atoms: _26  and  _27
REMARK   13  A    between atoms: _27  and  _28
REMARK   14  A    between atoms: _28  and  _29
REMARK   15  A    between atoms: _29  and  _30
REMARK   16  A    between atoms: _34  and  _36
REMARK   17  A    between atoms: _36  and  _37
REMARK   18  A    between atoms: _36  and  _39
REMARK   19  A    between atoms: _39  and  _40
REMARK   20  A    between atoms: _46  and  _48
REMARK   21  A    between atoms: _48  and  _49
REMARK   22  A    between atoms: _48  and  _51
REMARK   23  A    between atoms: _51  and  _52
REMARK   24  A    between atoms: _55  and  _57
REMARK   25  A    between atoms: _57  and  _58
REMARK   26  A    between atoms: _57  and  _60
REMARK   27  A    between atoms: _60  and  _61
REMARK   28  A    between atoms: _61  and  _63
REMARK   29  A    between atoms: _63  and  ZN_342
REMARK   30  A    between atoms: _64  and  _66
REMARK   31  A    between atoms: _66  and  _67
REMARK   32  A    between atoms: _66  and  _69
REMARK   33  A    between atoms: _69  and  _70
REMARK   34  A    between atoms: _72  and  _74
REMARK   35  A    between atoms: _74  and  _75
REMARK   36  A    between atoms: _74  and  _77
REMARK   37  A    between atoms: _77  and  _78
REMARK   38  A    between atoms: _78  and  _79
REMARK   39  A    between atoms: _82  and  _84
REMARK   40  A    between atoms: _84  and  _85
REMARK   41  A    between atoms: _84  and  _87
REMARK   42  A    between atoms: _87  and  _88
REMARK   43  A    between atoms: _88  and  _89
REMARK   44  A    between atoms: _89  and  _90
REMARK   45  A    between atoms: _90  and  ZN_342
REMARK   46  A    between atoms: _92  and  _94
REMARK   47  A    between atoms: _94  and  _95
REMARK   48  A    between atoms: _98  and  _100
REMARK   49  A    between atoms: _100  and  _101
REMARK   50  A    between atoms: _100  and  _103
REMARK   51  A    between atoms: _103  and  _104
REMARK   52  A    between atoms: _114  and  _116
REMARK   53  A    between atoms: _116  and  _117
REMARK   54  A    between atoms: _116  and  _119
REMARK   55  A    between atoms: _119  and  _120
REMARK   56  A    between atoms: _122  and  _124
REMARK   57  A    between atoms: _124  and  _125
REMARK   58  A    between atoms: _124  and  _127
REMARK   59  A    between atoms: _130  and  _132
REMARK   60  A    between atoms: _132  and  _133
REMARK   61  A    between atoms: _132  and  _135
REMARK   62  A    between atoms: _135  and  _136
REMARK   63  A    between atoms: _139  and  _141
REMARK   64  A    between atoms: _141  and  _142
REMARK   65  A    between atoms: _141  and  _144
REMARK   66  A    between atoms: _144  and  _145
REMARK   67  A    between atoms: _148  and  _150
REMARK   68  A    between atoms: _150  and  _151
REMARK   69  A    between atoms: _150  and  _153
REMARK   70  A    between atoms: _153  and  _154
REMARK   71  A    between atoms: _157  and  _159
REMARK   72  A    between atoms: _159  and  _160
REMARK   73  A    between atoms: _159  and  _162
REMARK   74  A    between atoms: _162  and  _163
REMARK   75  A    between atoms: _169  and  _171
REMARK   76  A    between atoms: _171  and  _172
REMARK   77  A    between atoms: _174  and  _176
REMARK   78  A    between atoms: _176  and  _177
REMARK   79  A    between atoms: _176  and  _179
REMARK   80  A    between atoms: _179  and  _180
REMARK   81  A    between atoms: _183  and  _185
REMARK   82  A    between atoms: _185  and  _186
REMARK   83  A    between atoms: _185  and  _188
REMARK   84  A    between atoms: _191  and  _193
REMARK   85  A    between atoms: _193  and  _194
REMARK   86  A    between atoms: _193  and  _196
REMARK   87  A    between atoms: _196  and  _197
REMARK   88  A    between atoms: _200  and  _202
REMARK   89  A    between atoms: _202  and  _203
REMARK   90  A    between atoms: _202  and  _205
REMARK   91  A    between atoms: _205  and  _206
REMARK   92  A    between atoms: _209  and  _211
REMARK   93  A    between atoms: _211  and  _212
REMARK   94  A    between atoms: _211  and  _214
REMARK   95  A    between atoms: _214  and  _215
REMARK   96  A    between atoms: _218  and  _220
REMARK   97  A    between atoms: _220  and  _221
REMARK   98  A    between atoms: _220  and  _223
REMARK   99  A    between atoms: _223  and  _224
REMARK  100  A    between atoms: _229  and  _231
REMARK  101  A    between atoms: _231  and  _232
REMARK  102  A    between atoms: _231  and  _234
REMARK  103  A    between atoms: _234  and  _235
REMARK  104  A    between atoms: _235  and  _236
REMARK  105  A    between atoms: _236  and  _237
REMARK  106  A    between atoms: _246  and  _248
REMARK  107  A    between atoms: _248  and  _249
REMARK  108  A    between atoms: _248  and  _251
REMARK  109  A    between atoms: _251  and  _252
REMARK  110  A    between atoms: _257  and  _259
REMARK  111  A    between atoms: _259  and  _260
REMARK  112  A    between atoms: _259  and  _262
REMARK  113  A    between atoms: _265  and  _267
REMARK  114  A    between atoms: _267  and  _268
REMARK  115  A    between atoms: _271  and  _273
REMARK  116  A    between atoms: _273  and  _274
REMARK  117  A    between atoms: _273  and  _276
REMARK  118  A    between atoms: _276  and  _277
REMARK  119  A    between atoms: _281  and  _282
REMARK  120  A    between atoms: _287  and  _289
REMARK  121  A    between atoms: _289  and  _290
REMARK  122  A    between atoms: _289  and  _292
REMARK  123  A    between atoms: _292  and  _293
REMARK  124  A    between atoms: _300  and  _301
REMARK  125  A    between atoms: _306  and  _308
REMARK  126  A    between atoms: _308  and  _309
REMARK  127  A    between atoms: _308  and  _311
REMARK  128  A    between atoms: _311  and  _312
REMARK  129  A    between atoms: _315  and  _317
REMARK  130  A    between atoms: _317  and  _318
REMARK  131  A    between atoms: _317  and  _320
REMARK  132  A    between atoms: _320  and  _321
REMARK  133  A    between atoms: _331  and  _333
REMARK  134  A    between atoms: _333  and  _334
REMARK  135  A    between atoms: _333  and  _336
REMARK  136  A    between atoms: _336  and  _337
REMARK  137  A    between atoms: _341  and  ZN_342
REMARK                            x       y       z     vdW  Elec       q    Type
REMARK                         _______ _______ _______ _____ _____    ______ ____
ROOT
ATOM      1  CA  LEU A   1     -39.108  23.824 -36.681  0.00  0.00    +0.133 C 
ENDROOT
BRANCH   1   2
ATOM      2  N   LEU A   1     -38.405  23.951 -37.969  0.00  0.00    -0.239 NA
ATOM      3  H   LEU A   1     -38.970  23.999 -38.841  0.00  0.00    +0.142 HD
ENDBRANCH   1   2
BRANCH   1   4
ATOM      4  C   LEU A   1     -39.638  22.407 -36.522  0.00  0.00    +0.224 C 
ATOM      5  O   LEU A   1     -40.417  21.944 -37.326  0.00  0.00    -0.287 OA
ENDBRANCH   1   4
BRANCH   1   6
ATOM      6  CB  LEU A   1     -40.261  24.816 -36.587  0.00  0.00    +0.025 C 
BRANCH   6   7
ATOM      7  CG  LEU A   1     -41.192  24.838 -35.364  0.00  0.00    +0.002 C 
ATOM      8  CD2 LEU A   1     -40.420  25.140 -34.078  0.00  0.00    +0.000 C 
ATOM      9  CD1 LEU A   1     -42.383  25.787 -35.490  0.00  0.00    +0.000 C 
ENDBRANCH   6   7
ENDBRANCH   1   6
TORSDOF 4
REMARK  Name = ../refined-set-2016/4f9u/4f9u_pocket.pdb
REMARK  137 active torsions:
REMARK  status: ('A' for Active; 'I' for Inactive)
REMARK    1  A    between atoms: _1  and  _3
REMARK    2  A    between atoms: _3  and  _4
REMARK    3  A    between atoms: _3  and  _6
REMARK    4  A    between atoms: _6  and  _7
REMARK    5  A    between atoms: _12  and  _14
REMARK    6  A    between atoms: _14  and  _15
REMARK    7  A    between atoms: _14  and  _17
REMARK    8  A    between atoms: _17  and  _18
REMARK    9  A    between atoms: _21  and  _23
REMARK   10  A    between atoms: _23  and  _24
REMARK   11  A    between atoms: _23  and  _26
REMARK   12  A    between atoms: _26  and  _27
REMARK   13  A    between atoms: _27  and  _28
REMARK   14  A    between atoms: _28  and  _29
REMARK   15  A    between atoms: _29  and  _30
REMARK   16  A    between atoms: _34  and  _36
REMARK   17  A    between atoms: _36  and  _37
REMARK   18  A    between atoms: _36  and  _39
REMARK   19  A    between atoms: _39  and  _40
REMARK   20  A    between atoms: _46  and  _48
REMARK   21  A    between atoms: _48  and  _49
REMARK   22  A    between atoms: _48  and  _51
REMARK   23  A    between atoms: _51  and  _52
REMARK   24  A    between atoms: _55  and  _57
REMARK   25  A    between atoms: _57  and  _58
REMARK   26  A    between atoms: _57  and  _60
REMARK   27  A    between atoms: _60  and  _61
REMARK   28  A    between atoms: _61  and  _63
REMARK   29  A    between atoms: _63  and  ZN_342
REMARK   30  A    between atoms: _64  and  _66
REMARK   31  A    between atoms: _66  and  _67
REMARK   32  A    between atoms: _66  and  _69
REMARK   33  A    between atoms: _69  and  _70
REMARK   34  A    between atoms: _72  and  _74
REMARK   35  A    between atoms: _74  and  _75
REMARK   36  A    between atoms: _74  and  _77
REMARK   37  A    between atoms: _77  and  _78
REMARK   38  A    between atoms: _78  and  _79
REMARK   39  A    between atoms: _82  and  _84
REMARK   40  A    between atoms: _84  and  _85
REMARK   41  A    between atoms: _84  and  _87
REMARK   42  A    between atoms: _87  and  _88
REMARK   43  A    between atoms: _88  and  _89
REMARK   44  A    between atoms: _89  and  _90
REMARK   45  A    between atoms: _90  and  ZN_342
REMARK   46  A    between atoms: _92  and  _94
REMARK   47  A    between atoms: _94  and  _95
REMARK   48  A    between atoms: _98  and  _100
REMARK   49  A    between atoms: _100  and  _101
REMARK   50  A    between atoms: _100  and  _103
REMARK   51  A    between atoms: _103  and  _104
REMARK   52  A    between atoms: _114  and  _116
REMARK   53  A    between atoms: _116  and  _117
REMARK   54  A    between atoms: _116  and  _119
REMARK   55  A    between atoms: _119  and  _120
REMARK   56  A    between atoms: _122  and  _124
REMARK   57  A    between atoms: _124  and  _125
REMARK   58  A    between atoms: _124  and  _127
REMARK   59  A    between atoms: _130  and  _132
REMARK   60  A    between atoms: _132  and  _133
REMARK   61  A    between atoms: _132  and  _135
REMARK   62  A    between atoms: _135  and  _136
REMARK   63  A    between atoms: _139  and  _141
REMARK   64  A    between atoms: _141  and  _142
REMARK   65  A    between atoms: _141  and  _144
REMARK   66  A    between atoms: _144  and  _145
REMARK   67  A    between atoms: _148  and  _150
REMARK   68  A    between atoms: _150  and  _151
REMARK   69  A    between atoms: _150  and  _153
REMARK   70  A    between atoms: _153  and  _154
REMARK   71  A    between atoms: _157  and  _159
REMARK   72  A    between atoms: _159  and  _160
REMARK   73  A    between atoms: _159  and  _162
REMARK   74  A    between atoms: _162  and  _163
REMARK   75  A    between atoms: _169  and  _171
REMARK   76  A    between atoms: _171  and  _172
REMARK   77  A    between atoms: _174  and  _176
REMARK   78  A    between atoms: _176  and  _177
REMARK   79  A    between atoms: _176  and  _179
REMARK   80  A    between atoms: _179  and  _180
REMARK   81  A    between atoms: _183  and  _185
REMARK   82  A    between atoms: _185  and  _186
REMARK   83  A    between atoms: _185  and  _188
REMARK   84  A    between atoms: _191  and  _193
REMARK   85  A    between atoms: _193  and  _194
REMARK   86  A    between atoms: _193  and  _196
REMARK   87  A    between atoms: _196  and  _197
REMARK   88  A    between atoms: _200  and  _202
REMARK   89  A    between atoms: _202  and  _203
REMARK   90  A    between atoms: _202  and  _205
REMARK   91  A    between atoms: _205  and  _206
REMARK   92  A    between atoms: _209  and  _211
REMARK   93  A    between atoms: _211  and  _212
REMARK   94  A    between atoms: _211  and  _214
REMARK   95  A    between atoms: _214  and  _215
REMARK   96  A    between atoms: _218  and  _220
REMARK   97  A    between atoms: _220  and  _221
REMARK   98  A    between atoms: _220  and  _223
REMARK   99  A    between atoms: _223  and  _224
REMARK  100  A    between atoms: _229  and  _231
REMARK  101  A    between atoms: _231  and  _232
REMARK  102  A    between atoms: _231  and  _234
REMARK  103  A    between atoms: _234  and  _235
REMARK  104  A    between atoms: _235  and  _236
REMARK  105  A    between atoms: _236  and  _237
REMARK  106  A    between atoms: _246  and  _248
REMARK  107  A    between atoms: _248  and  _249
REMARK  108  A    between atoms: _248  and  _251
REMARK  109  A    between atoms: _251  and  _252
REMARK  110  A    between atoms: _257  and  _259
REMARK  111  A    between atoms: _259  and  _260
REMARK  112  A    between atoms: _259  and  _262
REMARK  113  A    between atoms: _265  and  _267
REMARK  114  A    between atoms: _267  and  _268
REMARK  115  A    between atoms: _271  and  _273
REMARK  116  A    between atoms: _273  and  _274
REMARK  117  A    between atoms: _273  and  _276
REMARK  118  A    between atoms: _276  and  _277
REMARK  119  A    between atoms: _281  and  _282
REMARK  120  A    between atoms: _287  and  _289
REMARK  121  A    between atoms: _289  and  _290
REMARK  122  A    between atoms: _289  and  _292
REMARK  123  A    between atoms: _292  and  _293
REMARK  124  A    between atoms: _300  and  _301
REMARK  125  A    between atoms: _306  and  _308
REMARK  126  A    between atoms: _308  and  _309
REMARK  127  A    between atoms: _308  and  _311
REMARK  128  A    between atoms: _311  and  _312
REMARK  129  A    between atoms: _315  and  _317
REMARK  130  A    between atoms: _317  and  _318
REMARK  131  A    between atoms: _317  and  _320
REMARK  132  A    between atoms: _320  and  _321
REMARK  133  A    between atoms: _331  and  _333
REMARK  134  A    between atoms: _333  and  _334
REMARK  135  A    between atoms: _333  and  _336
REMARK  136  A    between atoms: _336  and  _337
REMARK  137  A    between atoms: _341  and  ZN_342
REMARK                            x       y       z     vdW  Elec       q    Type
REMARK                         _______ _______ _______ _____ _____    ______ ____
ROOT
ATOM      1  C   ASP A   1     -43.575  18.336 -33.409  0.00  0.00    +0.239 C 
ATOM      2  N   LEU A   2     -44.042  17.805 -32.281  0.00  0.00    -0.298 N 
ATOM      3  H   LEU A   2     -43.786  18.254 -31.379  0.00  0.00    +0.150 HD
ATOM      4  O   ASP A   1     -43.735  17.814 -34.519  0.00  0.00    -0.274 OA
ENDROOT
BRANCH   1   5
ATOM      5  CA  ASP A   1     -42.824  19.685 -33.262  0.00  0.00    +0.156 C 
BRANCH   5   6
ATOM      6  N   ASP A   1     -41.786  19.800 -34.268  0.00  0.00    -0.238 NA
ATOM      7  H   ASP A   1     -41.936  19.374 -35.205  0.00  0.00    +0.142 HD
ENDBRANCH   5   6
BRANCH   5   8
ATOM      8  CB  ASP A   1     -43.815  20.877 -33.380  0.00  0.00    +0.140 C 
BRANCH   8   9
ATOM      9  CG  ASP A   1     -44.522  21.220 -32.077  0.00  0.00    +0.367 C 
ATOM     10  OD2 ASP A   1     -44.540  20.415 -31.128  0.00  0.00    -0.246 OA
ATOM     11  OD1 ASP A   1     -45.095  22.329 -31.971  0.00  0.00    -0.246 OA
ENDBRANCH   8   9
ENDBRANCH   5   8
ENDBRANCH   1   5
BRANCH   2  12
ATOM     12  CA  LEU A   2     -44.887  16.635 -32.252  0.00  0.00    +0.137 C 
BRANCH  12  13
ATOM     13  C   LEU A   2     -44.257  15.413 -32.892  0.00  0.00    +0.227 C 
ATOM     14  O   LEU A   2     -44.844  14.741 -33.743  0.00  0.00    -0.286 OA
ENDBRANCH  12  13
BRANCH  12  15
ATOM     15  CB  LEU A   2     -46.265  16.958 -32.824  0.00  0.00    +0.028 C 
BRANCH  15  16
ATOM     16  CG  LEU A   2     -46.971  18.195 -32.283  0.00  0.00    +0.002 C 
ATOM     17  CD2 LEU A   2     -47.033  18.235 -30.750  0.00  0.00    +0.000 C 
ATOM     18  CD1 LEU A   2     -48.391  18.224 -32.877  0.00  0.00    +0.000 C 
ENDBRANCH  15  16
ENDBRANCH  12  15
ENDBRANCH   2  12
TORSDOF 8
REMARK  Name = ../refined-set-2016/4f9u/4f9u_pocket.pdb
REMARK  137 active torsions:
REMARK  status: ('A' for Active; 'I' for Inactive)
REMARK    1  A    between atoms: _1  and  _3
REMARK    2  A    between atoms: _3  and  _4
REMARK    3  A    between atoms: _3  and  _6
REMARK    4  A    between atoms: _6  and  _7
REMARK    5  A    between atoms: _12  and  _14
REMARK    6  A    between atoms: _14  and  _15
REMARK    7  A    between atoms: _14  and  _17
REMARK    8  A    between atoms: _17  and  _18
REMARK    9  A    between atoms: _21  and  _23
REMARK   10  A    between atoms: _23  and  _24
REMARK   11  A    between atoms: _23  and  _26
REMARK   12  A    between atoms: _26  and  _27
REMARK   13  A    between atoms: _27  and  _28
REMARK   14  A    between atoms: _28  and  _29
REMARK   15  A    between atoms: _29  and  _30
REMARK   16  A    between atoms: _34  and  _36
REMARK   17  A    between atoms: _36  and  _37
REMARK   18  A    between atoms: _36  and  _39
REMARK   19  A    between atoms: _39  and  _40
REMARK   20  A    between atoms: _46  and  _48
REMARK   21  A    between atoms: _48  and  _49
REMARK   22  A    between atoms: _48  and  _51
REMARK   23  A    between atoms: _51  and  _52
REMARK   24  A    between atoms: _55  and  _57
REMARK   25  A    between atoms: _57  and  _58
REMARK   26  A    between atoms: _57  and  _60
REMARK   27  A    between atoms: _60  and  _61
REMARK   28  A    between atoms: _61  and  _63
REMARK   29  A    between atoms: _63  and  ZN_342
REMARK   30  A    between atoms: _64  and  _66
REMARK   31  A    between atoms: _66  and  _67
REMARK   32  A    between atoms: _66  and  _69
REMARK   33  A    between atoms: _69  and  _70
REMARK   34  A    between atoms: _72  and  _74
REMARK   35  A    between atoms: _74  and  _75
REMARK   36  A    between atoms: _74  and  _77
REMARK   37  A    between atoms: _77  and  _78
REMARK   38  A    between atoms: _78  and  _79
REMARK   39  A    between atoms: _82  and  _84
REMARK   40  A    between atoms: _84  and  _85
REMARK   41  A    between atoms: _84  and  _87
REMARK   42  A    between atoms: _87  and  _88
REMARK   43  A    between atoms: _88  and  _89
REMARK   44  A    between atoms: _89  and  _90
REMARK   45  A    between atoms: _90  and  ZN_342
REMARK   46  A    between atoms: _92  and  _94
REMARK   47  A    between atoms: _94  and  _95
REMARK   48  A    between atoms: _98  and  _100
REMARK   49  A    between atoms: _100  and  _101
REMARK   50  A    between atoms: _100  and  _103
REMARK   51  A    between atoms: _103  and  _104
REMARK   52  A    between atoms: _114  and  _116
REMARK   53  A    between atoms: _116  and  _117
REMARK   54  A    between atoms: _116  and  _119
REMARK   55  A    between atoms: _119  and  _120
REMARK   56  A    between atoms: _122  and  _124
REMARK   57  A    between atoms: _124  and  _125
REMARK   58  A    between atoms: _124  and  _127
REMARK   59  A    between atoms: _130  and  _132
REMARK   60  A    between atoms: _132  and  _133
REMARK   61  A    between atoms: _132  and  _135
REMARK   62  A    between atoms: _135  and  _136
REMARK   63  A    between atoms: _139  and  _141
REMARK   64  A    between atoms: _141  and  _142
REMARK   65  A    between atoms: _141  and  _144
REMARK   66  A    between atoms: _144  and  _145
REMARK   67  A    between atoms: _148  and  _150
REMARK   68  A    between atoms: _150  and  _151
REMARK   69  A    between atoms: _150  and  _153
REMARK   70  A    between atoms: _153  and  _154
REMARK   71  A    between atoms: _157  and  _159
REMARK   72  A    between atoms: _159  and  _160
REMARK   73  A    between atoms: _159  and  _162
REMARK   74  A    between atoms: _162  and  _163
REMARK   75  A    between atoms: _169  and  _171
REMARK   76  A    between atoms: _171  and  _172
REMARK   77  A    between atoms: _174  and  _176
REMARK   78  A    between atoms: _176  and  _177
REMARK   79  A    between atoms: _176  and  _179
REMARK   80  A    between atoms: _179  and  _180
REMARK   81  A    between atoms: _183  and  _185
REMARK   82  A    between atoms: _185  and  _186
REMARK   83  A    between atoms: _185  and  _188
REMARK   84  A    between atoms: _191  and  _193
REMARK   85  A    between atoms: _193  and  _194
REMARK   86  A    between atoms: _193  and  _196
REMARK   87  A    between atoms: _196  and  _197
REMARK   88  A    between atoms: _200  and  _202
REMARK   89  A    between atoms: _202  and  _203
REMARK   90  A    between atoms: _202  and  _205
REMARK   91  A    between atoms: _205  and  _206
REMARK   92  A    between atoms: _209  and  _211
REMARK   93  A    between atoms: _211  and  _212
REMARK   94  A    between atoms: _211  and  _214
REMARK   95  A    between atoms: _214  and  _215
REMARK   96  A    between atoms: _218  and  _220
REMARK   97  A    between atoms: _220  and  _221
REMARK   98  A    between atoms: _220  and  _223
REMARK   99  A    between atoms: _223  and  _224
REMARK  100  A    between atoms: _229  and  _231
REMARK  101  A    between atoms: _231  and  _232
REMARK  102  A    between atoms: _231  and  _234
REMARK  103  A    between atoms: _234  and  _235
REMARK  104  A    between atoms: _235  and  _236
REMARK  105  A    between atoms: _236  and  _237
REMARK  106  A    between atoms: _246  and  _248
REMARK  107  A    between atoms: _248  and  _249
REMARK  108  A    between atoms: _248  and  _251
REMARK  109  A    between atoms: _251  and  _252
REMARK  110  A    between atoms: _257  and  _259
REMARK  111  A    between atoms: _259  and  _260
REMARK  112  A    between atoms: _259  and  _262
REMARK  113  A    between atoms: _265  and  _267
REMARK  114  A    between atoms: _267  and  _268
REMARK  115  A    between atoms: _271  and  _273
REMARK  116  A    between atoms: _273  and  _274
REMARK  117  A    between atoms: _273  and  _276
REMARK  118  A    between atoms: _276  and  _277
REMARK  119  A    between atoms: _281  and  _282
REMARK  120  A    between atoms: _287  and  _289
REMARK  121  A    between atoms: _289  and  _290
REMARK  122  A    between atoms: _289  and  _292
REMARK  123  A    between atoms: _292  and  _293
REMARK  124  A    between atoms: _300  and  _301
REMARK  125  A    between atoms: _306  and  _308
REMARK  126  A    between atoms: _308  and  _309
REMARK  127  A    between atoms: _308  and  _311
REMARK  128  A    between atoms: _311  and  _312
REMARK  129  A    between atoms: _315  and  _317
REMARK  130  A    between atoms: _317  and  _318
REMARK  131  A    between atoms: _317  and  _320
REMARK  132  A    between atoms: _320  and  _321
REMARK  133  A    between atoms: _331  and  _333
REMARK  134  A    between atoms: _333  and  _334
REMARK  135  A    between atoms: _333  and  _336
REMARK  136  A    between atoms: _336  and  _337
REMARK  137  A    between atoms: _341  and  ZN_342
REMARK                            x       y       z     vdW  Elec       q    Type
REMARK                         _______ _______ _______ _____ _____    ______ ____
ROOT
ATOM      1  CB  PHE A   1     -46.196  23.339 -44.559  0.00  0.00    +0.051 C 
ENDROOT
BRANCH   1   2
ATOM      2  CG  PHE A   1     -46.721  22.289 -43.607  0.00  0.00    -0.020 A 
ATOM      3  CD2 PHE A   1     -45.859  21.497 -42.897  0.00  0.00    -0.004 A 
ATOM      4  CE2 PHE A   1     -46.320  20.543 -42.035  0.00  0.00    -0.000 A 
ATOM      5  CZ  PHE A   1     -47.664  20.373 -41.854  0.00  0.00    -0.000 A 
ATOM      6  CE1 PHE A   1     -48.557  21.173 -42.533  0.00  0.00    -0.000 A 
ATOM      7  CD1 PHE A   1     -48.080  22.129 -43.411  0.00  0.00    -0.004 A 
ENDBRANCH   1   2
BRANCH   1   8
ATOM      8  CA  PHE A   1     -46.161  22.874 -46.010  0.00  0.00    +0.137 C 
BRANCH   8   9
ATOM      9  N   PHE A   1     -45.138  21.846 -46.181  0.00  0.00    -0.239 NA
ATOM     10  H   PHE A   1     -44.245  21.904 -45.651  0.00  0.00    +0.142 HD
ENDBRANCH   8   9
BRANCH   8  11
ATOM     11  C   PHE A   1     -45.982  24.043 -46.959  0.00  0.00    +0.224 C 
ATOM     12  O   PHE A   1     -46.942  24.680 -47.312  0.00  0.00    -0.287 OA
ENDBRANCH   8  11
ENDBRANCH   1   8
TORSDOF 4
REMARK  Name = ../refined-set-2016/4f9u/4f9u_pocket.pdb
REMARK  137 active torsions:
REMARK  status: ('A' for Active; 'I' for Inactive)
REMARK    1  A    between atoms: _1  and  _3
REMARK    2  A    between atoms: _3  and  _4
REMARK    3  A    between atoms: _3  and  _6
REMARK    4  A    between atoms: _6  and  _7
REMARK    5  A    between atoms: _12  and  _14
REMARK    6  A    between atoms: _14  and  _15
REMARK    7  A    between atoms: _14  and  _17
REMARK    8  A    between atoms: _17  and  _18
REMARK    9  A    between atoms: _21  and  _23
REMARK   10  A    between atoms: _23  and  _24
REMARK   11  A    between atoms: _23  and  _26
REMARK   12  A    between atoms: _26  and  _27
REMARK   13  A    between atoms: _27  and  _28
REMARK   14  A    between atoms: _28  and  _29
REMARK   15  A    between atoms: _29  and  _30
REMARK   16  A    between atoms: _34  and  _36
REMARK   17  A    between atoms: _36  and  _37
REMARK   18  A    between atoms: _36  and  _39
REMARK   19  A    between atoms: _39  and  _40
REMARK   20  A    between atoms: _46  and  _48
REMARK   21  A    between atoms: _48  and  _49
REMARK   22  A    between atoms: _48  and  _51
REMARK   23  A    between atoms: _51  and  _52
REMARK   24  A    between atoms: _55  and  _57
REMARK   25  A    between atoms: _57  and  _58
REMARK   26  A    between atoms: _57  and  _60
REMARK   27  A    between atoms: _60  and  _61
REMARK   28  A    between atoms: _61  and  _63
REMARK   29  A    between atoms: _63  and  ZN_342
REMARK   30  A    between atoms: _64  and  _66
REMARK   31  A    between atoms: _66  and  _67
REMARK   32  A    between atoms: _66  and  _69
REMARK   33  A    between atoms: _69  and  _70
REMARK   34  A    between atoms: _72  and  _74
REMARK   35  A    between atoms: _74  and  _75
REMARK   36  A    between atoms: _74  and  _77
REMARK   37  A    between atoms: _77  and  _78
REMARK   38  A    between atoms: _78  and  _79
REMARK   39  A    between atoms: _82  and  _84
REMARK   40  A    between atoms: _84  and  _85
REMARK   41  A    between atoms: _84  and  _87
REMARK   42  A    between atoms: _87  and  _88
REMARK   43  A    between atoms: _88  and  _89
REMARK   44  A    between atoms: _89  and  _90
REMARK   45  A    between atoms: _90  and  ZN_342
REMARK   46  A    between atoms: _92  and  _94
REMARK   47  A    between atoms: _94  and  _95
REMARK   48  A    between atoms: _98  and  _100
REMARK   49  A    between atoms: _100  and  _101
REMARK   50  A    between atoms: _100  and  _103
REMARK   51  A    between atoms: _103  and  _104
REMARK   52  A    between atoms: _114  and  _116
REMARK   53  A    between atoms: _116  and  _117
REMARK   54  A    between atoms: _116  and  _119
REMARK   55  A    between atoms: _119  and  _120
REMARK   56  A    between atoms: _122  and  _124
REMARK   57  A    between atoms: _124  and  _125
REMARK   58  A    between atoms: _124  and  _127
REMARK   59  A    between atoms: _130  and  _132
REMARK   60  A    between atoms: _132  and  _133
REMARK   61  A    between atoms: _132  and  _135
REMARK   62  A    between atoms: _135  and  _136
REMARK   63  A    between atoms: _139  and  _141
REMARK   64  A    between atoms: _141  and  _142
REMARK   65  A    between atoms: _141  and  _144
REMARK   66  A    between atoms: _144  and  _145
REMARK   67  A    between atoms: _148  and  _150
REMARK   68  A    between atoms: _150  and  _151
REMARK   69  A    between atoms: _150  and  _153
REMARK   70  A    between atoms: _153  and  _154
REMARK   71  A    between atoms: _157  and  _159
REMARK   72  A    between atoms: _159  and  _160
REMARK   73  A    between atoms: _159  and  _162
REMARK   74  A    between atoms: _162  and  _163
REMARK   75  A    between atoms: _169  and  _171
REMARK   76  A    between atoms: _171  and  _172
REMARK   77  A    between atoms: _174  and  _176
REMARK   78  A    between atoms: _176  and  _177
REMARK   79  A    between atoms: _176  and  _179
REMARK   80  A    between atoms: _179  and  _180
REMARK   81  A    between atoms: _183  and  _185
REMARK   82  A    between atoms: _185  and  _186
REMARK   83  A    between atoms: _185  and  _188
REMARK   84  A    between atoms: _191  and  _193
REMARK   85  A    between atoms: _193  and  _194
REMARK   86  A    between atoms: _193  and  _196
REMARK   87  A    between atoms: _196  and  _197
REMARK   88  A    between atoms: _200  and  _202
REMARK   89  A    between atoms: _202  and  _203
REMARK   90  A    between atoms: _202  and  _205
REMARK   91  A    between atoms: _205  and  _206
REMARK   92  A    between atoms: _209  and  _211
REMARK   93  A    between atoms: _211  and  _212
REMARK   94  A    between atoms: _211  and  _214
REMARK   95  A    between atoms: _214  and  _215
REMARK   96  A    between atoms: _218  and  _220
REMARK   97  A    between atoms: _220  and  _221
REMARK   98  A    between atoms: _220  and  _223
REMARK   99  A    between atoms: _223  and  _224
REMARK  100  A    between atoms: _229  and  _231
REMARK  101  A    between atoms: _231  and  _232
REMARK  102  A    between atoms: _231  and  _234
REMARK  103  A    between atoms: _234  and  _235
REMARK  104  A    between atoms: _235  and  _236
REMARK  105  A    between atoms: _236  and  _237
REMARK  106  A    between atoms: _246  and  _248
REMARK  107  A    between atoms: _248  and  _249
REMARK  108  A    between atoms: _248  and  _251
REMARK  109  A    between atoms: _251  and  _252
REMARK  110  A    between atoms: _257  and  _259
REMARK  111  A    between atoms: _259  and  _260
REMARK  112  A    between atoms: _259  and  _262
REMARK  113  A    between atoms: _265  and  _267
REMARK  114  A    between atoms: _267  and  _268
REMARK  115  A    between atoms: _271  and  _273
REMARK  116  A    between atoms: _273  and  _274
REMARK  117  A    between atoms: _273  and  _276
REMARK  118  A    between atoms: _276  and  _277
REMARK  119  A    between atoms: _281  and  _282
REMARK  120  A    between atoms: _287  and  _289
REMARK  121  A    between atoms: _289  and  _290
REMARK  122  A    between atoms: _289  and  _292
REMARK  123  A    between atoms: _292  and  _293
REMARK  124  A    between atoms: _300  and  _301
REMARK  125  A    between atoms: _306  and  _308
REMARK  126  A    between atoms: _308  and  _309
REMARK  127  A    between atoms: _308  and  _311
REMARK  128  A    between atoms: _311  and  _312
REMARK  129  A    between atoms: _315  and  _317
REMARK  130  A    between atoms: _317  and  _318
REMARK  131  A    between atoms: _317  and  _320
REMARK  132  A    between atoms: _320  and  _321
REMARK  133  A    between atoms: _331  and  _333
REMARK  134  A    between atoms: _333  and  _334
REMARK  135  A    between atoms: _333  and  _336
REMARK  136  A    between atoms: _336  and  _337
REMARK  137  A    between atoms: _341  and  ZN_342
REMARK                            x       y       z     vdW  Elec       q    Type
REMARK                         _______ _______ _______ _____ _____    ______ ____
ROOT
ATOM      1  C   ASP A   5     -45.901  28.311 -34.092  0.00  0.00    +0.241 C 
ATOM      2  N   ASP A   6     -44.762  28.073 -33.440  0.00  0.00    -0.297 N 
ATOM      3  H   ASP A   6     -44.624  27.110 -33.071  0.00  0.00    +0.150 HD
ATOM      4  O   ASP A   5     -46.215  29.417 -34.588  0.00  0.00    -0.273 OA
ENDROOT
BRANCH   2   5
ATOM      5  CA  ASP A   6     -43.695  29.028 -33.195  0.00  0.00    +0.160 C 
BRANCH   5   6
ATOM      6  C   ASP A   6     -43.127  29.730 -34.434  0.00  0.00    +0.241 C 
ATOM      7  O   ASP A   6     -42.432  30.698 -34.302  0.00  0.00    -0.273 OA
ATOM      8  N   HIS A   7     -43.385  29.204 -35.625  0.00  0.00    -0.297 N 
ATOM      9  H   HIS A   7     -43.955  28.337 -35.697  0.00  0.00    +0.150 HD
BRANCH   8  10
ATOM     10  CA  HIS A   7     -42.866  29.845 -36.846  0.00  0.00    +0.155 C 
BRANCH  10  11
ATOM     11  C   HIS A   7     -43.723  31.019 -37.252  0.00  0.00    +0.241 C 
ATOM     12  N   ARG A   8     -44.913  31.191 -36.671  0.00  0.00    -0.298 N 
ATOM     13  H   ARG A   8     -45.233  30.545 -35.921  0.00  0.00    +0.150 HD
ATOM     14  O   HIS A   7     -43.344  31.776 -38.139  0.00  0.00    -0.273 OA
BRANCH  12  15
ATOM     15  CA  ARG A   8     -45.755  32.295 -37.102  0.00  0.00    +0.137 C 
BRANCH  15  16
ATOM     16  C   ARG A   8     -45.057  33.680 -37.028  0.00  0.00    +0.227 C 
ATOM     17  O   ARG A   8     -45.134  34.439 -37.995  0.00  0.00    -0.286 OA
ENDBRANCH  15  16
BRANCH  15  18
ATOM     18  CB  ARG A   8     -47.082  32.298 -36.382  0.00  0.00    +0.031 C 
BRANCH  18  19
ATOM     19  CG  ARG A   8     -47.761  33.650 -36.331  0.00  0.00    +0.045 C 
BRANCH  19  20
ATOM     20  CD  ARG A   8     -49.255  33.520 -36.044  0.00  0.00    +0.174 C 
BRANCH  20  21
ATOM     21  NE  ARG A   8     -49.659  32.582 -34.973  0.00  0.00    -0.265 N 
ATOM     22  CZ  ARG A   8     -49.882  32.891 -33.689  0.00  0.00    +0.342 C 
ATOM     23  NH2 ARG A   8     -50.311  31.958 -32.873  0.00  0.00    -0.292 N 
ATOM     24 HH21 ARG A   8     -50.489  32.183 -31.873  0.00  0.00    +0.255 HD
ATOM     25 HH22 ARG A   8     -50.474  30.993 -33.226  0.00  0.00    +0.255 HD
ATOM     26  NH1 ARG A   8     -49.683  34.117 -33.197  0.00  0.00    -0.292 N 
ATOM     27 HH11 ARG A   8     -49.870  34.311 -32.192  0.00  0.00    +0.255 HD
ATOM     28 HH12 ARG A   8     -49.341  34.878 -33.819  0.00  0.00    +0.255 HD
ATOM     29  HE  ARG A   8     -49.782  31.585 -35.244  0.00  0.00    +0.259 HD
ENDBRANCH  20  21
ENDBRANCH  19  20
ENDBRANCH  18  19
ENDBRANCH  15  18
ENDBRANCH  12  15
ENDBRANCH  10  11
BRANCH  10  30
ATOM     30  CB  HIS A   7     -42.794  28.803 -37.978  0.00  0.00    +0.076 C 
BRANCH  30  31
ATOM     31  CG  HIS A   7     -44.148  28.267 -38.333  0.00  0.00    +0.082 A 
ATOM     32  ND1 HIS A   7     -44.925  27.629 -37.431  0.00  0.00    -0.227 NA
ATOM     33  CE1 HIS A   7     -46.084  27.287 -38.012  0.00  0.00    +0.199 A 
ATOM     34  NE2 HIS A   7     -46.051  27.706 -39.297  0.00  0.00    -0.221 NA
ATOM     35  CD2 HIS A   7     -44.868  28.315 -39.514  0.00  0.00    +0.115 A 
ENDBRANCH  30  31
ENDBRANCH  10  30
ENDBRANCH   8  10
ENDBRANCH   5   6
BRANCH   5  36
ATOM     36  CB  ASP A   6     -42.527  28.345 -32.527  0.00  0.00    +0.143 C 
BRANCH  36  37
ATOM     37  CG  ASP A   6     -42.711  28.166 -30.995  0.00  0.00    +0.367 C 
ATOM     38  OD2 ASP A   6     -43.257  29.053 -30.322  0.00  0.00    -0.246 OA
ATOM     39  OD1 ASP A   6     -42.238  27.138 -30.486  0.00  0.00    -0.246 OA
ENDBRANCH  36  37
ENDBRANCH   5  36
ENDBRANCH   2   5
BRANCH   1  40
ATOM     40  CA  ASP A   5     -46.835  27.105 -34.238  0.00  0.00    +0.160 C 
BRANCH  40  43
ATOM     41  C   ASP A   4     -49.094  26.702 -35.155  0.00  0.00    +0.241 C 
ATOM     42  O   ASP A   4     -49.275  25.660 -34.516  0.00  0.00    -0.273 OA
ATOM     43  N   ASP A   5     -48.031  27.482 -35.000  0.00  0.00    -0.297 N 
ATOM     44  H   ASP A   5     -48.047  28.421 -35.447  0.00  0.00    +0.150 HD
BRANCH  41  45
ATOM     45  CA  ASP A   4     -50.102  27.148 -36.239  0.00  0.00    +0.160 C 
BRANCH  45  47
ATOM     46  C   VAL A   3     -49.786  25.204 -37.670  0.00  0.00    +0.241 C 
ATOM     47  N   ASP A   4     -50.593  25.961 -36.939  0.00  0.00    -0.297 N 
ATOM     48  H   ASP A   4     -51.598  25.705 -36.862  0.00  0.00    +0.150 HD
ATOM     49  O   VAL A   3     -48.624  25.507 -37.915  0.00  0.00    -0.273 OA
BRANCH  46  50
ATOM     50  CA  VAL A   3     -50.395  23.933 -38.239  0.00  0.00    +0.149 C 
BRANCH  50  52
ATOM     51  C   LEU A   2     -51.482  24.058 -40.440  0.00  0.00    +0.241 C 
ATOM     52  N   VAL A   3     -50.385  24.030 -39.692  0.00  0.00    -0.297 N 
ATOM     53  H   VAL A   3     -49.464  24.080 -40.172  0.00  0.00    +0.150 HD
ATOM     54  O   LEU A   2     -52.623  23.840 -40.019  0.00  0.00    -0.273 OA
BRANCH  51  55
ATOM     55  CA  LEU A   2     -51.251  24.325 -41.928  0.00  0.00    +0.149 C 
BRANCH  55  57
ATOM     56  C   GLY A   1     -52.259  22.878 -43.597  0.00  0.00    +0.240 C 
ATOM     57  N   LEU A   2     -52.383  23.778 -42.639  0.00  0.00    -0.297 N 
ATOM     58  H   LEU A   2     -53.336  24.107 -42.386  0.00  0.00    +0.150 HD
ATOM     59  O   GLY A   1     -51.177  22.431 -43.978  0.00  0.00    -0.274 OA
BRANCH  56  60
ATOM     60  CA  GLY A   1     -53.559  22.456 -44.270  0.00  0.00    +0.169 C 
BRANCH  60  61
ATOM     61  N   GLY A   1     -53.275  21.555 -45.382  0.00  0.00    -0.236 NA
ATOM     62  H   GLY A   1     -52.642  20.743 -45.235  0.00  0.00    +0.142 HD
ENDBRANCH  60  61
ENDBRANCH  56  60
ENDBRANCH  55  57
BRANCH  55  63
ATOM     63  CB  LEU A   2     -51.140  25.820 -42.204  0.00  0.00    +0.029 C 
BRANCH  63  64
ATOM     64  CG  LEU A   2     -50.857  26.199 -43.661  0.00  0.00    +0.002 C 
ATOM     65  CD2 LEU A   2     -50.995  27.701 -43.836  0.00  0.00    +0.000 C 
ATOM     66  CD1 LEU A   2     -49.485  25.721 -44.083  0.00  0.00    +0.000 C 
ENDBRANCH  63  64
ENDBRANCH  55  63
ENDBRANCH  51  55
ENDBRANCH  50  52
BRANCH  50  67
ATOM     67  CB  VAL A   3     -49.593  22.726 -37.734  0.00  0.00    +0.027 C 
ATOM     68  CG2 VAL A   3     -49.616  22.669 -36.208  0.00  0.00    +0.002 C 
ATOM     69  CG1 VAL A   3     -50.171  21.460 -38.343  0.00  0.00    +0.002 C 
ENDBRANCH  50  67
ENDBRANCH  46  50
ENDBRANCH  45  47
BRANCH  45  70
ATOM     70  CB  ASP A   4     -51.281  27.952 -35.672  0.00  0.00    +0.143 C 
BRANCH  70  71
ATOM     71  CG  ASP A   4     -50.882  29.373 -35.235  0.00  0.00    +0.367 C 
ATOM     72  OD2 ASP A   4     -51.566  29.935 -34.335  0.00  0.00    -0.246 OA
ATOM     73  OD1 ASP A   4     -49.892  29.916 -35.744  0.00  0.00    -0.246 OA
ENDBRANCH  70  71
ENDBRANCH  45  70
ENDBRANCH  41  45
ENDBRANCH  40  43
BRANCH  40  74
ATOM     74  CB  ASP A   5     -46.117  25.913 -34.889  0.00  0.00    +0.143 C 
BRANCH  74  75
ATOM     75  CG  ASP A   5     -45.431  24.968 -33.860  0.00  0.00    +0.367 C 
ATOM     76  OD2 ASP A   5     -45.232  25.378 -32.695  0.00  0.00    -0.246 OA
ATOM     77  OD1 ASP A   5     -45.098  23.808 -34.231  0.00  0.00    -0.246 OA
ENDBRANCH  74  75
ENDBRANCH  40  74
ENDBRANCH   1  40
TORSDOF 31
REMARK  Name = ../refined-set-2016/4f9u/4f9u_pocket.pdb
REMARK  137 active torsions:
REMARK  status: ('A' for Active; 'I' for Inactive)
REMARK    1  A    between atoms: _1  and  _3
REMARK    2  A    between atoms: _3  and  _4
REMARK    3  A    between atoms: _3  and  _6
REMARK    4  A    between atoms: _6  and  _7
REMARK    5  A    between atoms: _12  and  _14
REMARK    6  A    between atoms: _14  and  _15
REMARK    7  A    between atoms: _14  and  _17
REMARK    8  A    between atoms: _17  and  _18
REMARK    9  A    between atoms: _21  and  _23
REMARK   10  A    between atoms: _23  and  _24
REMARK   11  A    between atoms: _23  and  _26
REMARK   12  A    between atoms: _26  and  _27
REMARK   13  A    between atoms: _27  and  _28
REMARK   14  A    between atoms: _28  and  _29
REMARK   15  A    between atoms: _29  and  _30
REMARK   16  A    between atoms: _34  and  _36
REMARK   17  A    between atoms: _36  and  _37
REMARK   18  A    between atoms: _36  and  _39
REMARK   19  A    between atoms: _39  and  _40
REMARK   20  A    between atoms: _46  and  _48
REMARK   21  A    between atoms: _48  and  _49
REMARK   22  A    between atoms: _48  and  _51
REMARK   23  A    between atoms: _51  and  _52
REMARK   24  A    between atoms: _55  and  _57
REMARK   25  A    between atoms: _57  and  _58
REMARK   26  A    between atoms: _57  and  _60
REMARK   27  A    between atoms: _60  and  _61
REMARK   28  A    between atoms: _61  and  _63
REMARK   29  A    between atoms: _63  and  ZN_342
REMARK   30  A    between atoms: _64  and  _66
REMARK   31  A    between atoms: _66  and  _67
REMARK   32  A    between atoms: _66  and  _69
REMARK   33  A    between atoms: _69  and  _70
REMARK   34  A    between atoms: _72  and  _74
REMARK   35  A    between atoms: _74  and  _75
REMARK   36  A    between atoms: _74  and  _77
REMARK   37  A    between atoms: _77  and  _78
REMARK   38  A    between atoms: _78  and  _79
REMARK   39  A    between atoms: _82  and  _84
REMARK   40  A    between atoms: _84  and  _85
REMARK   41  A    between atoms: _84  and  _87
REMARK   42  A    between atoms: _87  and  _88
REMARK   43  A    between atoms: _88  and  _89
REMARK   44  A    between atoms: _89  and  _90
REMARK   45  A    between atoms: _90  and  ZN_342
REMARK   46  A    between atoms: _92  and  _94
REMARK   47  A    between atoms: _94  and  _95
REMARK   48  A    between atoms: _98  and  _100
REMARK   49  A    between atoms: _100  and  _101
REMARK   50  A    between atoms: _100  and  _103
REMARK   51  A    between atoms: _103  and  _104
REMARK   52  A    between atoms: _114  and  _116
REMARK   53  A    between atoms: _116  and  _117
REMARK   54  A    between atoms: _116  and  _119
REMARK   55  A    between atoms: _119  and  _120
REMARK   56  A    between atoms: _122  and  _124
REMARK   57  A    between atoms: _124  and  _125
REMARK   58  A    between atoms: _124  and  _127
REMARK   59  A    between atoms: _130  and  _132
REMARK   60  A    between atoms: _132  and  _133
REMARK   61  A    between atoms: _132  and  _135
REMARK   62  A    between atoms: _135  and  _136
REMARK   63  A    between atoms: _139  and  _141
REMARK   64  A    between atoms: _141  and  _142
REMARK   65  A    between atoms: _141  and  _144
REMARK   66  A    between atoms: _144  and  _145
REMARK   67  A    between atoms: _148  and  _150
REMARK   68  A    between atoms: _150  and  _151
REMARK   69  A    between atoms: _150  and  _153
REMARK   70  A    between atoms: _153  and  _154
REMARK   71  A    between atoms: _157  and  _159
REMARK   72  A    between atoms: _159  and  _160
REMARK   73  A    between atoms: _159  and  _162
REMARK   74  A    between atoms: _162  and  _163
REMARK   75  A    between atoms: _169  and  _171
REMARK   76  A    between atoms: _171  and  _172
REMARK   77  A    between atoms: _174  and  _176
REMARK   78  A    between atoms: _176  and  _177
REMARK   79  A    between atoms: _176  and  _179
REMARK   80  A    between atoms: _179  and  _180
REMARK   81  A    between atoms: _183  and  _185
REMARK   82  A    between atoms: _185  and  _186
REMARK   83  A    between atoms: _185  and  _188
REMARK   84  A    between atoms: _191  and  _193
REMARK   85  A    between atoms: _193  and  _194
REMARK   86  A    between atoms: _193  and  _196
REMARK   87  A    between atoms: _196  and  _197
REMARK   88  A    between atoms: _200  and  _202
REMARK   89  A    between atoms: _202  and  _203
REMARK   90  A    between atoms: _202  and  _205
REMARK   91  A    between atoms: _205  and  _206
REMARK   92  A    between atoms: _209  and  _211
REMARK   93  A    between atoms: _211  and  _212
REMARK   94  A    between atoms: _211  and  _214
REMARK   95  A    between atoms: _214  and  _215
REMARK   96  A    between atoms: _218  and  _220
REMARK   97  A    between atoms: _220  and  _221
REMARK   98  A    between atoms: _220  and  _223
REMARK   99  A    between atoms: _223  and  _224
REMARK  100  A    between atoms: _229  and  _231
REMARK  101  A    between atoms: _231  and  _232
REMARK  102  A    between atoms: _231  and  _234
REMARK  103  A    between atoms: _234  and  _235
REMARK  104  A    between atoms: _235  and  _236
REMARK  105  A    between atoms: _236  and  _237
REMARK  106  A    between atoms: _246  and  _248
REMARK  107  A    between atoms: _248  and  _249
REMARK  108  A    between atoms: _248  and  _251
REMARK  109  A    between atoms: _251  and  _252
REMARK  110  A    between atoms: _257  and  _259
REMARK  111  A    between atoms: _259  and  _260
REMARK  112  A    between atoms: _259  and  _262
REMARK  113  A    between atoms: _265  and  _267
REMARK  114  A    between atoms: _267  and  _268
REMARK  115  A    between atoms: _271  and  _273
REMARK  116  A    between atoms: _273  and  _274
REMARK  117  A    between atoms: _273  and  _276
REMARK  118  A    between atoms: _276  and  _277
REMARK  119  A    between atoms: _281  and  _282
REMARK  120  A    between atoms: _287  and  _289
REMARK  121  A    between atoms: _289  and  _290
REMARK  122  A    between atoms: _289  and  _292
REMARK  123  A    between atoms: _292  and  _293
REMARK  124  A    between atoms: _300  and  _301
REMARK  125  A    between atoms: _306  and  _308
REMARK  126  A    between atoms: _308  and  _309
REMARK  127  A    between atoms: _308  and  _311
REMARK  128  A    between atoms: _311  and  _312
REMARK  129  A    between atoms: _315  and  _317
REMARK  130  A    between atoms: _317  and  _318
REMARK  131  A    between atoms: _317  and  _320
REMARK  132  A    between atoms: _320  and  _321
REMARK  133  A    between atoms: _331  and  _333
REMARK  134  A    between atoms: _333  and  _334
REMARK  135  A    between atoms: _333  and  _336
REMARK  136  A    between atoms: _336  and  _337
REMARK  137  A    between atoms: _341  and  ZN_342
REMARK                            x       y       z     vdW  Elec       q    Type
REMARK                         _______ _______ _______ _____ _____    ______ ____
ROOT
ATOM      1  CB  HIS A   1     -43.631  23.446 -40.573  0.00  0.00    +0.072 C 
ENDROOT
BRANCH   1   2
ATOM      2  CG  HIS A   1     -44.292  23.519 -39.228  0.00  0.00    +0.082 A 
ATOM      3  CD2 HIS A   1     -43.791  23.307 -37.953  0.00  0.00    +0.115 A 
ATOM      4  NE2 HIS A   1     -44.771  23.565 -37.082  0.00  0.00    -0.221 NA
ATOM      5  CE1 HIS A   1     -45.877  23.883 -37.758  0.00  0.00    +0.199 A 
ATOM      6  ND1 HIS A   1     -45.578  23.912 -39.072  0.00  0.00    -0.227 NA
ENDBRANCH   1   2
BRANCH   1   7
ATOM      7  CA  HIS A   1     -42.230  22.835 -40.537  0.00  0.00    +0.139 C 
BRANCH   7   8
ATOM      8  N   HIS A   1     -41.519  23.193 -41.725  0.00  0.00    -0.239 NA
ATOM      9  H   HIS A   1     -42.041  23.222 -42.624  0.00  0.00    +0.142 HD
ENDBRANCH   7   8
BRANCH   7  10
ATOM     10  C   HIS A   1     -42.334  21.317 -40.395  0.00  0.00    +0.224 C 
ATOM     11  O   HIS A   1     -43.193  20.698 -40.991  0.00  0.00    -0.287 OA
ENDBRANCH   7  10
ENDBRANCH   1   7
TORSDOF 4
REMARK  Name = ../refined-set-2016/4f9u/4f9u_pocket.pdb
REMARK  137 active torsions:
REMARK  status: ('A' for Active; 'I' for Inactive)
REMARK    1  A    between atoms: _1  and  _3
REMARK    2  A    between atoms: _3  and  _4
REMARK    3  A    between atoms: _3  and  _6
REMARK    4  A    between atoms: _6  and  _7
REMARK    5  A    between atoms: _12  and  _14
REMARK    6  A    between atoms: _14  and  _15
REMARK    7  A    between atoms: _14  and  _17
REMARK    8  A    between atoms: _17  and  _18
REMARK    9  A    between atoms: _21  and  _23
REMARK   10  A    between atoms: _23  and  _24
REMARK   11  A    between atoms: _23  and  _26
REMARK   12  A    between atoms: _26  and  _27
REMARK   13  A    between atoms: _27  and  _28
REMARK   14  A    between atoms: _28  and  _29
REMARK   15  A    between atoms: _29  and  _30
REMARK   16  A    between atoms: _34  and  _36
REMARK   17  A    between atoms: _36  and  _37
REMARK   18  A    between atoms: _36  and  _39
REMARK   19  A    between atoms: _39  and  _40
REMARK   20  A    between atoms: _46  and  _48
REMARK   21  A    between atoms: _48  and  _49
REMARK   22  A    between atoms: _48  and  _51
REMARK   23  A    between atoms: _51  and  _52
REMARK   24  A    between atoms: _55  and  _57
REMARK   25  A    between atoms: _57  and  _58
REMARK   26  A    between atoms: _57  and  _60
REMARK   27  A    between atoms: _60  and  _61
REMARK   28  A    between atoms: _61  and  _63
REMARK   29  A    between atoms: _63  and  ZN_342
REMARK   30  A    between atoms: _64  and  _66
REMARK   31  A    between atoms: _66  and  _67
REMARK   32  A    between atoms: _66  and  _69
REMARK   33  A    between atoms: _69  and  _70
REMARK   34  A    between atoms: _72  and  _74
REMARK   35  A    between atoms: _74  and  _75
REMARK   36  A    between atoms: _74  and  _77
REMARK   37  A    between atoms: _77  and  _78
REMARK   38  A    between atoms: _78  and  _79
REMARK   39  A    between atoms: _82  and  _84
REMARK   40  A    between atoms: _84  and  _85
REMARK   41  A    between atoms: _84  and  _87
REMARK   42  A    between atoms: _87  and  _88
REMARK   43  A    between atoms: _88  and  _89
REMARK   44  A    between atoms: _89  and  _90
REMARK   45  A    between atoms: _90  and  ZN_342
REMARK   46  A    between atoms: _92  and  _94
REMARK   47  A    between atoms: _94  and  _95
REMARK   48  A    between atoms: _98  and  _100
REMARK   49  A    between atoms: _100  and  _101
REMARK   50  A    between atoms: _100  and  _103
REMARK   51  A    between atoms: _103  and  _104
REMARK   52  A    between atoms: _114  and  _116
REMARK   53  A    between atoms: _116  and  _117
REMARK   54  A    between atoms: _116  and  _119
REMARK   55  A    between atoms: _119  and  _120
REMARK   56  A    between atoms: _122  and  _124
REMARK   57  A    between atoms: _124  and  _125
REMARK   58  A    between atoms: _124  and  _127
REMARK   59  A    between atoms: _130  and  _132
REMARK   60  A    between atoms: _132  and  _133
REMARK   61  A    between atoms: _132  and  _135
REMARK   62  A    between atoms: _135  and  _136
REMARK   63  A    between atoms: _139  and  _141
REMARK   64  A    between atoms: _141  and  _142
REMARK   65  A    between atoms: _141  and  _144
REMARK   66  A    between atoms: _144  and  _145
REMARK   67  A    between atoms: _148  and  _150
REMARK   68  A    between atoms: _150  and  _151
REMARK   69  A    between atoms: _150  and  _153
REMARK   70  A    between atoms: _153  and  _154
REMARK   71  A    between atoms: _157  and  _159
REMARK   72  A    between atoms: _159  and  _160
REMARK   73  A    between atoms: _159  and  _162
REMARK   74  A    between atoms: _162  and  _163
REMARK   75  A    between atoms: _169  and  _171
REMARK   76  A    between atoms: _171  and  _172
REMARK   77  A    between atoms: _174  and  _176
REMARK   78  A    between atoms: _176  and  _177
REMARK   79  A    between atoms: _176  and  _179
REMARK   80  A    between atoms: _179  and  _180
REMARK   81  A    between atoms: _183  and  _185
REMARK   82  A    between atoms: _185  and  _186
REMARK   83  A    between atoms: _185  and  _188
REMARK   84  A    between atoms: _191  and  _193
REMARK   85  A    between atoms: _193  and  _194
REMARK   86  A    between atoms: _193  and  _196
REMARK   87  A    between atoms: _196  and  _197
REMARK   88  A    between atoms: _200  and  _202
REMARK   89  A    between atoms: _202  and  _203
REMARK   90  A    between atoms: _202  and  _205
REMARK   91  A    between atoms: _205  and  _206
REMARK   92  A    between atoms: _209  and  _211
REMARK   93  A    between atoms: _211  and  _212
REMARK   94  A    between atoms: _211  and  _214
REMARK   95  A    between atoms: _214  and  _215
REMARK   96  A    between atoms: _218  and  _220
REMARK   97  A    between atoms: _220  and  _221
REMARK   98  A    between atoms: _220  and  _223
REMARK   99  A    between atoms: _223  and  _224
REMARK  100  A    between atoms: _229  and  _231
REMARK  101  A    between atoms: _231  and  _232
REMARK  102  A    between atoms: _231  and  _234
REMARK  103  A    between atoms: _234  and  _235
REMARK  104  A    between atoms: _235  and  _236
REMARK  105  A    between atoms: _236  and  _237
REMARK  106  A    between atoms: _246  and  _248
REMARK  107  A    between atoms: _248  and  _249
REMARK  108  A    between atoms: _248  and  _251
REMARK  109  A    between atoms: _251  and  _252
REMARK  110  A    between atoms: _257  and  _259
REMARK  111  A    between atoms: _259  and  _260
REMARK  112  A    between atoms: _259  and  _262
REMARK  113  A    between atoms: _265  and  _267
REMARK  114  A    between atoms: _267  and  _268
REMARK  115  A    between atoms: _271  and  _273
REMARK  116  A    between atoms: _273  and  _274
REMARK  117  A    between atoms: _273  and  _276
REMARK  118  A    between atoms: _276  and  _277
REMARK  119  A    between atoms: _281  and  _282
REMARK  120  A    between atoms: _287  and  _289
REMARK  121  A    between atoms: _289  and  _290
REMARK  122  A    between atoms: _289  and  _292
REMARK  123  A    between atoms: _292  and  _293
REMARK  124  A    between atoms: _300  and  _301
REMARK  125  A    between atoms: _306  and  _308
REMARK  126  A    between atoms: _308  and  _309
REMARK  127  A    between atoms: _308  and  _311
REMARK  128  A    between atoms: _311  and  _312
REMARK  129  A    between atoms: _315  and  _317
REMARK  130  A    between atoms: _317  and  _318
REMARK  131  A    between atoms: _317  and  _320
REMARK  132  A    between atoms: _320  and  _321
REMARK  133  A    between atoms: _331  and  _333
REMARK  134  A    between atoms: _333  and  _334
REMARK  135  A    between atoms: _333  and  _336
REMARK  136  A    between atoms: _336  and  _337
REMARK  137  A    between atoms: _341  and  ZN_342
REMARK                            x       y       z     vdW  Elec       q    Type
REMARK                         _______ _______ _______ _____ _____    ______ ____
ROOT
ATOM      1  C   PRO A   4     -51.078  13.697 -36.945  0.00  0.00    +0.241 C 
ATOM      2  N   PHE A   5     -51.591  14.483 -35.999  0.00  0.00    -0.297 N 
ATOM      3  H   PHE A   5     -52.484  14.980 -36.190  0.00  0.00    +0.150 HD
ATOM      4  O   PRO A   4     -49.958  13.156 -36.880  0.00  0.00    -0.273 OA
ENDROOT
BRANCH   1   7
ATOM      5  C   THR A   3     -50.267  13.871 -39.964  0.00  0.00    +0.246 C 
ATOM      6  N   PRO A   4     -51.224  13.163 -39.366  0.00  0.00    -0.272 N 
ATOM      7  CA  PRO A   4     -51.953  13.525 -38.163  0.00  0.00    +0.152 C 
ATOM      8  CB  PRO A   4     -52.905  12.326 -37.946  0.00  0.00    +0.031 C 
ATOM      9  CG  PRO A   4     -52.210  11.183 -38.597  0.00  0.00    +0.024 C 
ATOM     10  CD  PRO A   4     -51.545  11.784 -39.805  0.00  0.00    +0.094 C 
ATOM     11  O   THR A   3     -49.706  13.470 -40.976  0.00  0.00    -0.273 OA
BRANCH   5  12
ATOM     12  CA  THR A   3     -49.809  15.181 -39.293  0.00  0.00    +0.176 C 
BRANCH  12  15
ATOM     13  C   ALA A   2     -47.745  15.474 -37.974  0.00  0.00    +0.241 C 
ATOM     14  O   ALA A   2     -48.302  16.108 -37.092  0.00  0.00    -0.273 OA
ATOM     15  N   THR A   3     -48.358  15.049 -39.077  0.00  0.00    -0.295 N 
ATOM     16  H   THR A   3     -47.785  14.603 -39.821  0.00  0.00    +0.150 HD
BRANCH  13  17
ATOM     17  CA  ALA A   2     -46.260  15.197 -37.840  0.00  0.00    +0.149 C 
ATOM     18  CB  ALA A   2     -46.024  14.004 -36.885  0.00  0.00    +0.031 C 
BRANCH  17  20
ATOM     19  C   VAL A   1     -45.422  17.451 -38.100  0.00  0.00    +0.238 C 
ATOM     20  N   ALA A   2     -45.635  16.399 -37.317  0.00  0.00    -0.297 N 
ATOM     21  H   ALA A   2     -45.351  16.437 -36.317  0.00  0.00    +0.150 HD
ATOM     22  O   VAL A   1     -45.806  17.499 -39.266  0.00  0.00    -0.274 OA
BRANCH  19  23
ATOM     23  CA  VAL A   1     -44.632  18.606 -37.493  0.00  0.00    +0.145 C 
BRANCH  23  24
ATOM     24  CB  VAL A   1     -45.535  19.817 -37.126  0.00  0.00    +0.025 C 
ATOM     25  CG2 VAL A   1     -46.656  19.433 -36.143  0.00  0.00    +0.002 C 
ATOM     26  CG1 VAL A   1     -46.101  20.490 -38.388  0.00  0.00    +0.002 C 
ENDBRANCH  23  24
BRANCH  23  27
ATOM     27  N   VAL A   1     -43.586  18.945 -38.435  0.00  0.00    -0.238 NA
ATOM     28  H   VAL A   1     -43.874  19.197 -39.402  0.00  0.00    +0.142 HD
ENDBRANCH  23  27
ENDBRANCH  19  23
ENDBRANCH  17  20
ENDBRANCH  13  17
ENDBRANCH  12  15
BRANCH  12  29
ATOM     29  CB  THR A   3     -50.189  16.426 -40.151  0.00  0.00    +0.137 C 
ATOM     30  CG2 THR A   3     -49.764  17.713 -39.436  0.00  0.00    +0.034 C 
BRANCH  29  31
ATOM     31  OG1 THR A   3     -49.564  16.370 -41.437  0.00  0.00    -0.382 OA
ATOM     32  HG1 THR A   3     -48.581  16.349 -41.324  0.00  0.00    +0.210 HD
ENDBRANCH  29  31
ENDBRANCH  12  29
ENDBRANCH   5  12
ENDBRANCH   1   7
BRANCH   2  33
ATOM     33  CA  PHE A   5     -50.950  14.670 -34.715  0.00  0.00    +0.153 C 
BRANCH  33  34
ATOM     34  C   PHE A   5     -50.843  13.307 -34.003  0.00  0.00    +0.244 C 
ATOM     35  N   PRO A   6     -49.852  13.162 -33.131  0.00  0.00    -0.272 N 
ATOM     36  CA  PRO A   6     -49.870  11.982 -32.250  0.00  0.00    +0.152 C 
ATOM     37  CB  PRO A   6     -48.762  12.280 -31.238  0.00  0.00    +0.031 C 
ATOM     38  CG  PRO A   6     -47.843  13.223 -31.944  0.00  0.00    +0.024 C 
ATOM     39  CD  PRO A   6     -48.703  14.039 -32.862  0.00  0.00    +0.094 C 
ATOM     40  O   PHE A   5     -51.660  12.402 -34.237  0.00  0.00    -0.273 OA
BRANCH  36  41
ATOM     41  C   PRO A   6     -51.237  11.836 -31.558  0.00  0.00    +0.241 C 
ATOM     42  O   PRO A   6     -51.858  12.834 -31.177  0.00  0.00    -0.273 OA
ATOM     43  N   ASP A   7     -51.692  10.586 -31.444  0.00  0.00    -0.298 N 
ATOM     44  H   ASP A   7     -51.130   9.824 -31.874  0.00  0.00    +0.150 HD
BRANCH  43  45
ATOM     45  CA  ASP A   7     -52.929  10.216 -30.754  0.00  0.00    +0.148 C 
BRANCH  45  46
ATOM     46  C   ASP A   7     -52.985  10.837 -29.364  0.00  0.00    +0.227 C 
ATOM     47  O   ASP A   7     -54.048  11.228 -28.911  0.00  0.00    -0.286 OA
ENDBRANCH  45  46
BRANCH  45  48
ATOM     48  CB  ASP A   7     -53.033   8.674 -30.631  0.00  0.00    +0.142 C 
BRANCH  48  49
ATOM     49  CG  ASP A   7     -54.125   8.212 -29.640  0.00  0.00    +0.367 C 
ATOM     50  OD2 ASP A   7     -53.747   7.758 -28.505  0.00  0.00    -0.246 OA
ATOM     51  OD1 ASP A   7     -55.333   8.284 -29.986  0.00  0.00    -0.246 OA
ENDBRANCH  48  49
ENDBRANCH  45  48
ENDBRANCH  43  45
ENDBRANCH  36  41
ENDBRANCH  33  34
BRANCH  33  52
ATOM     52  CB  PHE A   5     -51.756  15.611 -33.819  0.00  0.00    +0.055 C 
BRANCH  52  53
ATOM     53  CG  PHE A   5     -51.646  17.099 -34.157  0.00  0.00    -0.020 A 
ATOM     54  CD2 PHE A   5     -52.204  18.038 -33.283  0.00  0.00    -0.004 A 
ATOM     55  CE2 PHE A   5     -52.134  19.402 -33.548  0.00  0.00    -0.000 A 
ATOM     56  CZ  PHE A   5     -51.530  19.848 -34.713  0.00  0.00    -0.000 A 
ATOM     57  CE1 PHE A   5     -50.967  18.939 -35.589  0.00  0.00    -0.000 A 
ATOM     58  CD1 PHE A   5     -51.029  17.565 -35.315  0.00  0.00    -0.004 A 
ENDBRANCH  52  53
ENDBRANCH  33  52
ENDBRANCH   2  33
TORSDOF 19
REMARK  Name = ../refined-set-2016/4f9u/4f9u_pocket.pdb
REMARK  137 active torsions:
REMARK  status: ('A' for Active; 'I' for Inactive)
REMARK    1  A    between atoms: _1  and  _3
REMARK    2  A    between atoms: _3  and  _4
REMARK    3  A    between atoms: _3  and  _6
REMARK    4  A    between atoms: _6  and  _7
REMARK    5  A    between atoms: _12  and  _14
REMARK    6  A    between atoms: _14  and  _15
REMARK    7  A    between atoms: _14  and  _17
REMARK    8  A    between atoms: _17  and  _18
REMARK    9  A    between atoms: _21  and  _23
REMARK   10  A    between atoms: _23  and  _24
REMARK   11  A    between atoms: _23  and  _26
REMARK   12  A    between atoms: _26  and  _27
REMARK   13  A    between atoms: _27  and  _28
REMARK   14  A    between atoms: _28  and  _29
REMARK   15  A    between atoms: _29  and  _30
REMARK   16  A    between atoms: _34  and  _36
REMARK   17  A    between atoms: _36  and  _37
REMARK   18  A    between atoms: _36  and  _39
REMARK   19  A    between atoms: _39  and  _40
REMARK   20  A    between atoms: _46  and  _48
REMARK   21  A    between atoms: _48  and  _49
REMARK   22  A    between atoms: _48  and  _51
REMARK   23  A    between atoms: _51  and  _52
REMARK   24  A    between atoms: _55  and  _57
REMARK   25  A    between atoms: _57  and  _58
REMARK   26  A    between atoms: _57  and  _60
REMARK   27  A    between atoms: _60  and  _61
REMARK   28  A    between atoms: _61  and  _63
REMARK   29  A    between atoms: _63  and  ZN_342
REMARK   30  A    between atoms: _64  and  _66
REMARK   31  A    between atoms: _66  and  _67
REMARK   32  A    between atoms: _66  and  _69
REMARK   33  A    between atoms: _69  and  _70
REMARK   34  A    between atoms: _72  and  _74
REMARK   35  A    between atoms: _74  and  _75
REMARK   36  A    between atoms: _74  and  _77
REMARK   37  A    between atoms: _77  and  _78
REMARK   38  A    between atoms: _78  and  _79
REMARK   39  A    between atoms: _82  and  _84
REMARK   40  A    between atoms: _84  and  _85
REMARK   41  A    between atoms: _84  and  _87
REMARK   42  A    between atoms: _87  and  _88
REMARK   43  A    between atoms: _88  and  _89
REMARK   44  A    between atoms: _89  and  _90
REMARK   45  A    between atoms: _90  and  ZN_342
REMARK   46  A    between atoms: _92  and  _94
REMARK   47  A    between atoms: _94  and  _95
REMARK   48  A    between atoms: _98  and  _100
REMARK   49  A    between atoms: _100  and  _101
REMARK   50  A    between atoms: _100  and  _103
REMARK   51  A    between atoms: _103  and  _104
REMARK   52  A    between atoms: _114  and  _116
REMARK   53  A    between atoms: _116  and  _117
REMARK   54  A    between atoms: _116  and  _119
REMARK   55  A    between atoms: _119  and  _120
REMARK   56  A    between atoms: _122  and  _124
REMARK   57  A    between atoms: _124  and  _125
REMARK   58  A    between atoms: _124  and  _127
REMARK   59  A    between atoms: _130  and  _132
REMARK   60  A    between atoms: _132  and  _133
REMARK   61  A    between atoms: _132  and  _135
REMARK   62  A    between atoms: _135  and  _136
REMARK   63  A    between atoms: _139  and  _141
REMARK   64  A    between atoms: _141  and  _142
REMARK   65  A    between atoms: _141  and  _144
REMARK   66  A    between atoms: _144  and  _145
REMARK   67  A    between atoms: _148  and  _150
REMARK   68  A    between atoms: _150  and  _151
REMARK   69  A    between atoms: _150  and  _153
REMARK   70  A    between atoms: _153  and  _154
REMARK   71  A    between atoms: _157  and  _159
REMARK   72  A    between atoms: _159  and  _160
REMARK   73  A    between atoms: _159  and  _162
REMARK   74  A    between atoms: _162  and  _163
REMARK   75  A    between atoms: _169  and  _171
REMARK   76  A    between atoms: _171  and  _172
REMARK   77  A    between atoms: _174  and  _176
REMARK   78  A    between atoms: _176  and  _177
REMARK   79  A    between atoms: _176  and  _179
REMARK   80  A    between atoms: _179  and  _180
REMARK   81  A    between atoms: _183  and  _185
REMARK   82  A    between atoms: _185  and  _186
REMARK   83  A    between atoms: _185  and  _188
REMARK   84  A    between atoms: _191  and  _193
REMARK   85  A    between atoms: _193  and  _194
REMARK   86  A    between atoms: _193  and  _196
REMARK   87  A    between atoms: _196  and  _197
REMARK   88  A    between atoms: _200  and  _202
REMARK   89  A    between atoms: _202  and  _203
REMARK   90  A    between atoms: _202  and  _205
REMARK   91  A    between atoms: _205  and  _206
REMARK   92  A    between atoms: _209  and  _211
REMARK   93  A    between atoms: _211  and  _212
REMARK   94  A    between atoms: _211  and  _214
REMARK   95  A    between atoms: _214  and  _215
REMARK   96  A    between atoms: _218  and  _220
REMARK   97  A    between atoms: _220  and  _221
REMARK   98  A    between atoms: _220  and  _223
REMARK   99  A    between atoms: _223  and  _224
REMARK  100  A    between atoms: _229  and  _231
REMARK  101  A    between atoms: _231  and  _232
REMARK  102  A    between atoms: _231  and  _234
REMARK  103  A    between atoms: _234  and  _235
REMARK  104  A    between atoms: _235  and  _236
REMARK  105  A    between atoms: _236  and  _237
REMARK  106  A    between atoms: _246  and  _248
REMARK  107  A    between atoms: _248  and  _249
REMARK  108  A    between atoms: _248  and  _251
REMARK  109  A    between atoms: _251  and  _252
REMARK  110  A    between atoms: _257  and  _259
REMARK  111  A    between atoms: _259  and  _260
REMARK  112  A    between atoms: _259  and  _262
REMARK  113  A    between atoms: _265  and  _267
REMARK  114  A    between atoms: _267  and  _268
REMARK  115  A    between atoms: _271  and  _273
REMARK  116  A    between atoms: _273  and  _274
REMARK  117  A    between atoms: _273  and  _276
REMARK  118  A    between atoms: _276  and  _277
REMARK  119  A    between atoms: _281  and  _282
REMARK  120  A    between atoms: _287  and  _289
REMARK  121  A    between atoms: _289  and  _290
REMARK  122  A    between atoms: _289  and  _292
REMARK  123  A    between atoms: _292  and  _293
REMARK  124  A    between atoms: _300  and  _301
REMARK  125  A    between atoms: _306  and  _308
REMARK  126  A    between atoms: _308  and  _309
REMARK  127  A    between atoms: _308  and  _311
REMARK  128  A    between atoms: _311  and  _312
REMARK  129  A    between atoms: _315  and  _317
REMARK  130  A    between atoms: _317  and  _318
REMARK  131  A    between atoms: _317  and  _320
REMARK  132  A    between atoms: _320  and  _321
REMARK  133  A    between atoms: _331  and  _333
REMARK  134  A    between atoms: _333  and  _334
REMARK  135  A    between atoms: _333  and  _336
REMARK  136  A    between atoms: _336  and  _337
REMARK  137  A    between atoms: _341  and  ZN_342
REMARK                            x       y       z     vdW  Elec       q    Type
REMARK                         _______ _______ _______ _____ _____    ______ ____
ROOT
ATOM      1  O   HOH     1     -41.503  22.269 -30.910  0.00  0.00    +0.000 OA
ENDROOT
TORSDOF 0
REMARK  Name = ../refined-set-2016/4f9u/4f9u_pocket.pdb
REMARK  137 active torsions:
REMARK  status: ('A' for Active; 'I' for Inactive)
REMARK    1  A    between atoms: _1  and  _3
REMARK    2  A    between atoms: _3  and  _4
REMARK    3  A    between atoms: _3  and  _6
REMARK    4  A    between atoms: _6  and  _7
REMARK    5  A    between atoms: _12  and  _14
REMARK    6  A    between atoms: _14  and  _15
REMARK    7  A    between atoms: _14  and  _17
REMARK    8  A    between atoms: _17  and  _18
REMARK    9  A    between atoms: _21  and  _23
REMARK   10  A    between atoms: _23  and  _24
REMARK   11  A    between atoms: _23  and  _26
REMARK   12  A    between atoms: _26  and  _27
REMARK   13  A    between atoms: _27  and  _28
REMARK   14  A    between atoms: _28  and  _29
REMARK   15  A    between atoms: _29  and  _30
REMARK   16  A    between atoms: _34  and  _36
REMARK   17  A    between atoms: _36  and  _37
REMARK   18  A    between atoms: _36  and  _39
REMARK   19  A    between atoms: _39  and  _40
REMARK   20  A    between atoms: _46  and  _48
REMARK   21  A    between atoms: _48  and  _49
REMARK   22  A    between atoms: _48  and  _51
REMARK   23  A    between atoms: _51  and  _52
REMARK   24  A    between atoms: _55  and  _57
REMARK   25  A    between atoms: _57  and  _58
REMARK   26  A    between atoms: _57  and  _60
REMARK   27  A    between atoms: _60  and  _61
REMARK   28  A    between atoms: _61  and  _63
REMARK   29  A    between atoms: _63  and  ZN_342
REMARK   30  A    between atoms: _64  and  _66
REMARK   31  A    between atoms: _66  and  _67
REMARK   32  A    between atoms: _66  and  _69
REMARK   33  A    between atoms: _69  and  _70
REMARK   34  A    between atoms: _72  and  _74
REMARK   35  A    between atoms: _74  and  _75
REMARK   36  A    between atoms: _74  and  _77
REMARK   37  A    between atoms: _77  and  _78
REMARK   38  A    between atoms: _78  and  _79
REMARK   39  A    between atoms: _82  and  _84
REMARK   40  A    between atoms: _84  and  _85
REMARK   41  A    between atoms: _84  and  _87
REMARK   42  A    between atoms: _87  and  _88
REMARK   43  A    between atoms: _88  and  _89
REMARK   44  A    between atoms: _89  and  _90
REMARK   45  A    between atoms: _90  and  ZN_342
REMARK   46  A    between atoms: _92  and  _94
REMARK   47  A    between atoms: _94  and  _95
REMARK   48  A    between atoms: _98  and  _100
REMARK   49  A    between atoms: _100  and  _101
REMARK   50  A    between atoms: _100  and  _103
REMARK   51  A    between atoms: _103  and  _104
REMARK   52  A    between atoms: _114  and  _116
REMARK   53  A    between atoms: _116  and  _117
REMARK   54  A    between atoms: _116  and  _119
REMARK   55  A    between atoms: _119  and  _120
REMARK   56  A    between atoms: _122  and  _124
REMARK   57  A    between atoms: _124  and  _125
REMARK   58  A    between atoms: _124  and  _127
REMARK   59  A    between atoms: _130  and  _132
REMARK   60  A    between atoms: _132  and  _133
REMARK   61  A    between atoms: _132  and  _135
REMARK   62  A    between atoms: _135  and  _136
REMARK   63  A    between atoms: _139  and  _141
REMARK   64  A    between atoms: _141  and  _142
REMARK   65  A    between atoms: _141  and  _144
REMARK   66  A    between atoms: _144  and  _145
REMARK   67  A    between atoms: _148  and  _150
REMARK   68  A    between atoms: _150  and  _151
REMARK   69  A    between atoms: _150  and  _153
REMARK   70  A    between atoms: _153  and  _154
REMARK   71  A    between atoms: _157  and  _159
REMARK   72  A    between atoms: _159  and  _160
REMARK   73  A    between atoms: _159  and  _162
REMARK   74  A    between atoms: _162  and  _163
REMARK   75  A    between atoms: _169  and  _171
REMARK   76  A    between atoms: _171  and  _172
REMARK   77  A    between atoms: _174  and  _176
REMARK   78  A    between atoms: _176  and  _177
REMARK   79  A    between atoms: _176  and  _179
REMARK   80  A    between atoms: _179  and  _180
REMARK   81  A    between atoms: _183  and  _185
REMARK   82  A    between atoms: _185  and  _186
REMARK   83  A    between atoms: _185  and  _188
REMARK   84  A    between atoms: _191  and  _193
REMARK   85  A    between atoms: _193  and  _194
REMARK   86  A    between atoms: _193  and  _196
REMARK   87  A    between atoms: _196  and  _197
REMARK   88  A    between atoms: _200  and  _202
REMARK   89  A    between atoms: _202  and  _203
REMARK   90  A    between atoms: _202  and  _205
REMARK   91  A    between atoms: _205  and  _206
REMARK   92  A    between atoms: _209  and  _211
REMARK   93  A    between atoms: _211  and  _212
REMARK   94  A    between atoms: _211  and  _214
REMARK   95  A    between atoms: _214  and  _215
REMARK   96  A    between atoms: _218  and  _220
REMARK   97  A    between atoms: _220  and  _221
REMARK   98  A    between atoms: _220  and  _223
REMARK   99  A    between atoms: _223  and  _224
REMARK  100  A    between atoms: _229  and  _231
REMARK  101  A    between atoms: _231  and  _232
REMARK  102  A    between atoms: _231  and  _234
REMARK  103  A    between atoms: _234  and  _235
REMARK  104  A    between atoms: _235  and  _236
REMARK  105  A    between atoms: _236  and  _237
REMARK  106  A    between atoms: _246  and  _248
REMARK  107  A    between atoms: _248  and  _249
REMARK  108  A    between atoms: _248  and  _251
REMARK  109  A    between atoms: _251  and  _252
REMARK  110  A    between atoms: _257  and  _259
REMARK  111  A    between atoms: _259  and  _260
REMARK  112  A    between atoms: _259  and  _262
REMARK  113  A    between atoms: _265  and  _267
REMARK  114  A    between atoms: _267  and  _268
REMARK  115  A    between atoms: _271  and  _273
REMARK  116  A    between atoms: _273  and  _274
REMARK  117  A    between atoms: _273  and  _276
REMARK  118  A    between atoms: _276  and  _277
REMARK  119  A    between atoms: _281  and  _282
REMARK  120  A    between atoms: _287  and  _289
REMARK  121  A    between atoms: _289  and  _290
REMARK  122  A    between atoms: _289  and  _292
REMARK  123  A    between atoms: _292  and  _293
REMARK  124  A    between atoms: _300  and  _301
REMARK  125  A    between atoms: _306  and  _308
REMARK  126  A    between atoms: _308  and  _309
REMARK  127  A    between atoms: _308  and  _311
REMARK  128  A    between atoms: _311  and  _312
REMARK  129  A    between atoms: _315  and  _317
REMARK  130  A    between atoms: _317  and  _318
REMARK  131  A    between atoms: _317  and  _320
REMARK  132  A    between atoms: _320  and  _321
REMARK  133  A    between atoms: _331  and  _333
REMARK  134  A    between atoms: _333  and  _334
REMARK  135  A    between atoms: _333  and  _336
REMARK  136  A    between atoms: _336  and  _337
REMARK  137  A    between atoms: _341  and  ZN_342
REMARK                            x       y       z     vdW  Elec       q    Type
REMARK                         _______ _______ _______ _____ _____    ______ ____
ROOT
ATOM      1  O   HOH     1     -46.846  16.948 -41.858  0.00  0.00    +0.000 OA
ENDROOT
TORSDOF 0
REMARK  Name = ../refined-set-2016/4f9u/4f9u_pocket.pdb
REMARK  137 active torsions:
REMARK  status: ('A' for Active; 'I' for Inactive)
REMARK    1  A    between atoms: _1  and  _3
REMARK    2  A    between atoms: _3  and  _4
REMARK    3  A    between atoms: _3  and  _6
REMARK    4  A    between atoms: _6  and  _7
REMARK    5  A    between atoms: _12  and  _14
REMARK    6  A    between atoms: _14  and  _15
REMARK    7  A    between atoms: _14  and  _17
REMARK    8  A    between atoms: _17  and  _18
REMARK    9  A    between atoms: _21  and  _23
REMARK   10  A    between atoms: _23  and  _24
REMARK   11  A    between atoms: _23  and  _26
REMARK   12  A    between atoms: _26  and  _27
REMARK   13  A    between atoms: _27  and  _28
REMARK   14  A    between atoms: _28  and  _29
REMARK   15  A    between atoms: _29  and  _30
REMARK   16  A    between atoms: _34  and  _36
REMARK   17  A    between atoms: _36  and  _37
REMARK   18  A    between atoms: _36  and  _39
REMARK   19  A    between atoms: _39  and  _40
REMARK   20  A    between atoms: _46  and  _48
REMARK   21  A    between atoms: _48  and  _49
REMARK   22  A    between atoms: _48  and  _51
REMARK   23  A    between atoms: _51  and  _52
REMARK   24  A    between atoms: _55  and  _57
REMARK   25  A    between atoms: _57  and  _58
REMARK   26  A    between atoms: _57  and  _60
REMARK   27  A    between atoms: _60  and  _61
REMARK   28  A    between atoms: _61  and  _63
REMARK   29  A    between atoms: _63  and  ZN_342
REMARK   30  A    between atoms: _64  and  _66
REMARK   31  A    between atoms: _66  and  _67
REMARK   32  A    between atoms: _66  and  _69
REMARK   33  A    between atoms: _69  and  _70
REMARK   34  A    between atoms: _72  and  _74
REMARK   35  A    between atoms: _74  and  _75
REMARK   36  A    between atoms: _74  and  _77
REMARK   37  A    between atoms: _77  and  _78
REMARK   38  A    between atoms: _78  and  _79
REMARK   39  A    between atoms: _82  and  _84
REMARK   40  A    between atoms: _84  and  _85
REMARK   41  A    between atoms: _84  and  _87
REMARK   42  A    between atoms: _87  and  _88
REMARK   43  A    between atoms: _88  and  _89
REMARK   44  A    between atoms: _89  and  _90
REMARK   45  A    between atoms: _90  and  ZN_342
REMARK   46  A    between atoms: _92  and  _94
REMARK   47  A    between atoms: _94  and  _95
REMARK   48  A    between atoms: _98  and  _100
REMARK   49  A    between atoms: _100  and  _101
REMARK   50  A    between atoms: _100  and  _103
REMARK   51  A    between atoms: _103  and  _104
REMARK   52  A    between atoms: _114  and  _116
REMARK   53  A    between atoms: _116  and  _117
REMARK   54  A    between atoms: _116  and  _119
REMARK   55  A    between atoms: _119  and  _120
REMARK   56  A    between atoms: _122  and  _124
REMARK   57  A    between atoms: _124  and  _125
REMARK   58  A    between atoms: _124  and  _127
REMARK   59  A    between atoms: _130  and  _132
REMARK   60  A    between atoms: _132  and  _133
REMARK   61  A    between atoms: _132  and  _135
REMARK   62  A    between atoms: _135  and  _136
REMARK   63  A    between atoms: _139  and  _141
REMARK   64  A    between atoms: _141  and  _142
REMARK   65  A    between atoms: _141  and  _144
REMARK   66  A    between atoms: _144  and  _145
REMARK   67  A    between atoms: _148  and  _150
REMARK   68  A    between atoms: _150  and  _151
REMARK   69  A    between atoms: _150  and  _153
REMARK   70  A    between atoms: _153  and  _154
REMARK   71  A    between atoms: _157  and  _159
REMARK   72  A    between atoms: _159  and  _160
REMARK   73  A    between atoms: _159  and  _162
REMARK   74  A    between atoms: _162  and  _163
REMARK   75  A    between atoms: _169  and  _171
REMARK   76  A    between atoms: _171  and  _172
REMARK   77  A    between atoms: _174  and  _176
REMARK   78  A    between atoms: _176  and  _177
REMARK   79  A    between atoms: _176  and  _179
REMARK   80  A    between atoms: _179  and  _180
REMARK   81  A    between atoms: _183  and  _185
REMARK   82  A    between atoms: _185  and  _186
REMARK   83  A    between atoms: _185  and  _188
REMARK   84  A    between atoms: _191  and  _193
REMARK   85  A    between atoms: _193  and  _194
REMARK   86  A    between atoms: _193  and  _196
REMARK   87  A    between atoms: _196  and  _197
REMARK   88  A    between atoms: _200  and  _202
REMARK   89  A    between atoms: _202  and  _203
REMARK   90  A    between atoms: _202  and  _205
REMARK   91  A    between atoms: _205  and  _206
REMARK   92  A    between atoms: _209  and  _211
REMARK   93  A    between atoms: _211  and  _212
REMARK   94  A    between atoms: _211  and  _214
REMARK   95  A    between atoms: _214  and  _215
REMARK   96  A    between atoms: _218  and  _220
REMARK   97  A    between atoms: _220  and  _221
REMARK   98  A    between atoms: _220  and  _223
REMARK   99  A    between atoms: _223  and  _224
REMARK  100  A    between atoms: _229  and  _231
REMARK  101  A    between atoms: _231  and  _232
REMARK  102  A    between atoms: _231  and  _234
REMARK  103  A    between atoms: _234  and  _235
REMARK  104  A    between atoms: _235  and  _236
REMARK  105  A    between atoms: _236  and  _237
REMARK  106  A    between atoms: _246  and  _248
REMARK  107  A    between atoms: _248  and  _249
REMARK  108  A    between atoms: _248  and  _251
REMARK  109  A    between atoms: _251  and  _252
REMARK  110  A    between atoms: _257  and  _259
REMARK  111  A    between atoms: _259  and  _260
REMARK  112  A    between atoms: _259  and  _262
REMARK  113  A    between atoms: _265  and  _267
REMARK  114  A    between atoms: _267  and  _268
REMARK  115  A    between atoms: _271  and  _273
REMARK  116  A    between atoms: _273  and  _274
REMARK  117  A    between atoms: _273  and  _276
REMARK  118  A    between atoms: _276  and  _277
REMARK  119  A    between atoms: _281  and  _282
REMARK  120  A    between atoms: _287  and  _289
REMARK  121  A    between atoms: _289  and  _290
REMARK  122  A    between atoms: _289  and  _292
REMARK  123  A    between atoms: _292  and  _293
REMARK  124  A    between atoms: _300  and  _301
REMARK  125  A    between atoms: _306  and  _308
REMARK  126  A    between atoms: _308  and  _309
REMARK  127  A    between atoms: _308  and  _311
REMARK  128  A    between atoms: _311  and  _312
REMARK  129  A    between atoms: _315  and  _317
REMARK  130  A    between atoms: _317  and  _318
REMARK  131  A    between atoms: _317  and  _320
REMARK  132  A    between atoms: _320  and  _321
REMARK  133  A    between atoms: _331  and  _333
REMARK  134  A    between atoms: _333  and  _334
REMARK  135  A    between atoms: _333  and  _336
REMARK  136  A    between atoms: _336  and  _337
REMARK  137  A    between atoms: _341  and  ZN_342
REMARK                            x       y       z     vdW  Elec       q    Type
REMARK                         _______ _______ _______ _____ _____    ______ ____
ROOT
ATOM      1  O   HOH     1     -51.590  25.427 -26.133  0.00  0.00    +0.000 OA
ENDROOT
TORSDOF 0
REMARK  Name = ../refined-set-2016/4f9u/4f9u_pocket.pdb
REMARK  137 active torsions:
REMARK  status: ('A' for Active; 'I' for Inactive)
REMARK    1  A    between atoms: _1  and  _3
REMARK    2  A    between atoms: _3  and  _4
REMARK    3  A    between atoms: _3  and  _6
REMARK    4  A    between atoms: _6  and  _7
REMARK    5  A    between atoms: _12  and  _14
REMARK    6  A    between atoms: _14  and  _15
REMARK    7  A    between atoms: _14  and  _17
REMARK    8  A    between atoms: _17  and  _18
REMARK    9  A    between atoms: _21  and  _23
REMARK   10  A    between atoms: _23  and  _24
REMARK   11  A    between atoms: _23  and  _26
REMARK   12  A    between atoms: _26  and  _27
REMARK   13  A    between atoms: _27  and  _28
REMARK   14  A    between atoms: _28  and  _29
REMARK   15  A    between atoms: _29  and  _30
REMARK   16  A    between atoms: _34  and  _36
REMARK   17  A    between atoms: _36  and  _37
REMARK   18  A    between atoms: _36  and  _39
REMARK   19  A    between atoms: _39  and  _40
REMARK   20  A    between atoms: _46  and  _48
REMARK   21  A    between atoms: _48  and  _49
REMARK   22  A    between atoms: _48  and  _51
REMARK   23  A    between atoms: _51  and  _52
REMARK   24  A    between atoms: _55  and  _57
REMARK   25  A    between atoms: _57  and  _58
REMARK   26  A    between atoms: _57  and  _60
REMARK   27  A    between atoms: _60  and  _61
REMARK   28  A    between atoms: _61  and  _63
REMARK   29  A    between atoms: _63  and  ZN_342
REMARK   30  A    between atoms: _64  and  _66
REMARK   31  A    between atoms: _66  and  _67
REMARK   32  A    between atoms: _66  and  _69
REMARK   33  A    between atoms: _69  and  _70
REMARK   34  A    between atoms: _72  and  _74
REMARK   35  A    between atoms: _74  and  _75
REMARK   36  A    between atoms: _74  and  _77
REMARK   37  A    between atoms: _77  and  _78
REMARK   38  A    between atoms: _78  and  _79
REMARK   39  A    between atoms: _82  and  _84
REMARK   40  A    between atoms: _84  and  _85
REMARK   41  A    between atoms: _84  and  _87
REMARK   42  A    between atoms: _87  and  _88
REMARK   43  A    between atoms: _88  and  _89
REMARK   44  A    between atoms: _89  and  _90
REMARK   45  A    between atoms: _90  and  ZN_342
REMARK   46  A    between atoms: _92  and  _94
REMARK   47  A    between atoms: _94  and  _95
REMARK   48  A    between atoms: _98  and  _100
REMARK   49  A    between atoms: _100  and  _101
REMARK   50  A    between atoms: _100  and  _103
REMARK   51  A    between atoms: _103  and  _104
REMARK   52  A    between atoms: _114  and  _116
REMARK   53  A    between atoms: _116  and  _117
REMARK   54  A    between atoms: _116  and  _119
REMARK   55  A    between atoms: _119  and  _120
REMARK   56  A    between atoms: _122  and  _124
REMARK   57  A    between atoms: _124  and  _125
REMARK   58  A    between atoms: _124  and  _127
REMARK   59  A    between atoms: _130  and  _132
REMARK   60  A    between atoms: _132  and  _133
REMARK   61  A    between atoms: _132  and  _135
REMARK   62  A    between atoms: _135  and  _136
REMARK   63  A    between atoms: _139  and  _141
REMARK   64  A    between atoms: _141  and  _142
REMARK   65  A    between atoms: _141  and  _144
REMARK   66  A    between atoms: _144  and  _145
REMARK   67  A    between atoms: _148  and  _150
REMARK   68  A    between atoms: _150  and  _151
REMARK   69  A    between atoms: _150  and  _153
REMARK   70  A    between atoms: _153  and  _154
REMARK   71  A    between atoms: _157  and  _159
REMARK   72  A    between atoms: _159  and  _160
REMARK   73  A    between atoms: _159  and  _162
REMARK   74  A    between atoms: _162  and  _163
REMARK   75  A    between atoms: _169  and  _171
REMARK   76  A    between atoms: _171  and  _172
REMARK   77  A    between atoms: _174  and  _176
REMARK   78  A    between atoms: _176  and  _177
REMARK   79  A    between atoms: _176  and  _179
REMARK   80  A    between atoms: _179  and  _180
REMARK   81  A    between atoms: _183  and  _185
REMARK   82  A    between atoms: _185  and  _186
REMARK   83  A    between atoms: _185  and  _188
REMARK   84  A    between atoms: _191  and  _193
REMARK   85  A    between atoms: _193  and  _194
REMARK   86  A    between atoms: _193  and  _196
REMARK   87  A    between atoms: _196  and  _197
REMARK   88  A    between atoms: _200  and  _202
REMARK   89  A    between atoms: _202  and  _203
REMARK   90  A    between atoms: _202  and  _205
REMARK   91  A    between atoms: _205  and  _206
REMARK   92  A    between atoms: _209  and  _211
REMARK   93  A    between atoms: _211  and  _212
REMARK   94  A    between atoms: _211  and  _214
REMARK   95  A    between atoms: _214  and  _215
REMARK   96  A    between atoms: _218  and  _220
REMARK   97  A    between atoms: _220  and  _221
REMARK   98  A    between atoms: _220  and  _223
REMARK   99  A    between atoms: _223  and  _224
REMARK  100  A    between atoms: _229  and  _231
REMARK  101  A    between atoms: _231  and  _232
REMARK  102  A    between atoms: _231  and  _234
REMARK  103  A    between atoms: _234  and  _235
REMARK  104  A    between atoms: _235  and  _236
REMARK  105  A    between atoms: _236  and  _237
REMARK  106  A    between atoms: _246  and  _248
REMARK  107  A    between atoms: _248  and  _249
REMARK  108  A    between atoms: _248  and  _251
REMARK  109  A    between atoms: _251  and  _252
REMARK  110  A    between atoms: _257  and  _259
REMARK  111  A    between atoms: _259  and  _260
REMARK  112  A    between atoms: _259  and  _262
REMARK  113  A    between atoms: _265  and  _267
REMARK  114  A    between atoms: _267  and  _268
REMARK  115  A    between atoms: _271  and  _273
REMARK  116  A    between atoms: _273  and  _274
REMARK  117  A    between atoms: _273  and  _276
REMARK  118  A    between atoms: _276  and  _277
REMARK  119  A    between atoms: _281  and  _282
REMARK  120  A    between atoms: _287  and  _289
REMARK  121  A    between atoms: _289  and  _290
REMARK  122  A    between atoms: _289  and  _292
REMARK  123  A    between atoms: _292  and  _293
REMARK  124  A    between atoms: _300  and  _301
REMARK  125  A    between atoms: _306  and  _308
REMARK  126  A    between atoms: _308  and  _309
REMARK  127  A    between atoms: _308  and  _311
REMARK  128  A    between atoms: _311  and  _312
REMARK  129  A    between atoms: _315  and  _317
REMARK  130  A    between atoms: _317  and  _318
REMARK  131  A    between atoms: _317  and  _320
REMARK  132  A    between atoms: _320  and  _321
REMARK  133  A    between atoms: _331  and  _333
REMARK  134  A    between atoms: _333  and  _334
REMARK  135  A    between atoms: _333  and  _336
REMARK  136  A    between atoms: _336  and  _337
REMARK  137  A    between atoms: _341  and  ZN_342
REMARK                            x       y       z     vdW  Elec       q    Type
REMARK                         _______ _______ _______ _____ _____    ______ ____
ROOT
ATOM      1  O   HOH     1     -47.549  24.221 -40.747  0.00  0.00    +0.000 OA
ENDROOT
TORSDOF 0
REMARK  Name = ../refined-set-2016/4f9u/4f9u_pocket.pdb
REMARK  137 active torsions:
REMARK  status: ('A' for Active; 'I' for Inactive)
REMARK    1  A    between atoms: _1  and  _3
REMARK    2  A    between atoms: _3  and  _4
REMARK    3  A    between atoms: _3  and  _6
REMARK    4  A    between atoms: _6  and  _7
REMARK    5  A    between atoms: _12  and  _14
REMARK    6  A    between atoms: _14  and  _15
REMARK    7  A    between atoms: _14  and  _17
REMARK    8  A    between atoms: _17  and  _18
REMARK    9  A    between atoms: _21  and  _23
REMARK   10  A    between atoms: _23  and  _24
REMARK   11  A    between atoms: _23  and  _26
REMARK   12  A    between atoms: _26  and  _27
REMARK   13  A    between atoms: _27  and  _28
REMARK   14  A    between atoms: _28  and  _29
REMARK   15  A    between atoms: _29  and  _30
REMARK   16  A    between atoms: _34  and  _36
REMARK   17  A    between atoms: _36  and  _37
REMARK   18  A    between atoms: _36  and  _39
REMARK   19  A    between atoms: _39  and  _40
REMARK   20  A    between atoms: _46  and  _48
REMARK   21  A    between atoms: _48  and  _49
REMARK   22  A    between atoms: _48  and  _51
REMARK   23  A    between atoms: _51  and  _52
REMARK   24  A    between atoms: _55  and  _57
REMARK   25  A    between atoms: _57  and  _58
REMARK   26  A    between atoms: _57  and  _60
REMARK   27  A    between atoms: _60  and  _61
REMARK   28  A    between atoms: _61  and  _63
REMARK   29  A    between atoms: _63  and  ZN_342
REMARK   30  A    between atoms: _64  and  _66
REMARK   31  A    between atoms: _66  and  _67
REMARK   32  A    between atoms: _66  and  _69
REMARK   33  A    between atoms: _69  and  _70
REMARK   34  A    between atoms: _72  and  _74
REMARK   35  A    between atoms: _74  and  _75
REMARK   36  A    between atoms: _74  and  _77
REMARK   37  A    between atoms: _77  and  _78
REMARK   38  A    between atoms: _78  and  _79
REMARK   39  A    between atoms: _82  and  _84
REMARK   40  A    between atoms: _84  and  _85
REMARK   41  A    between atoms: _84  and  _87
REMARK   42  A    between atoms: _87  and  _88
REMARK   43  A    between atoms: _88  and  _89
REMARK   44  A    between atoms: _89  and  _90
REMARK   45  A    between atoms: _90  and  ZN_342
REMARK   46  A    between atoms: _92  and  _94
REMARK   47  A    between atoms: _94  and  _95
REMARK   48  A    between atoms: _98  and  _100
REMARK   49  A    between atoms: _100  and  _101
REMARK   50  A    between atoms: _100  and  _103
REMARK   51  A    between atoms: _103  and  _104
REMARK   52  A    between atoms: _114  and  _116
REMARK   53  A    between atoms: _116  and  _117
REMARK   54  A    between atoms: _116  and  _119
REMARK   55  A    between atoms: _119  and  _120
REMARK   56  A    between atoms: _122  and  _124
REMARK   57  A    between atoms: _124  and  _125
REMARK   58  A    between atoms: _124  and  _127
REMARK   59  A    between atoms: _130  and  _132
REMARK   60  A    between atoms: _132  and  _133
REMARK   61  A    between atoms: _132  and  _135
REMARK   62  A    between atoms: _135  and  _136
REMARK   63  A    between atoms: _139  and  _141
REMARK   64  A    between atoms: _141  and  _142
REMARK   65  A    between atoms: _141  and  _144
REMARK   66  A    between atoms: _144  and  _145
REMARK   67  A    between atoms: _148  and  _150
REMARK   68  A    between atoms: _150  and  _151
REMARK   69  A    between atoms: _150  and  _153
REMARK   70  A    between atoms: _153  and  _154
REMARK   71  A    between atoms: _157  and  _159
REMARK   72  A    between atoms: _159  and  _160
REMARK   73  A    between atoms: _159  and  _162
REMARK   74  A    between atoms: _162  and  _163
REMARK   75  A    between atoms: _169  and  _171
REMARK   76  A    between atoms: _171  and  _172
REMARK   77  A    between atoms: _174  and  _176
REMARK   78  A    between atoms: _176  and  _177
REMARK   79  A    between atoms: _176  and  _179
REMARK   80  A    between atoms: _179  and  _180
REMARK   81  A    between atoms: _183  and  _185
REMARK   82  A    between atoms: _185  and  _186
REMARK   83  A    between atoms: _185  and  _188
REMARK   84  A    between atoms: _191  and  _193
REMARK   85  A    between atoms: _193  and  _194
REMARK   86  A    between atoms: _193  and  _196
REMARK   87  A    between atoms: _196  and  _197
REMARK   88  A    between atoms: _200  and  _202
REMARK   89  A    between atoms: _202  and  _203
REMARK   90  A    between atoms: _202  and  _205
REMARK   91  A    between atoms: _205  and  _206
REMARK   92  A    between atoms: _209  and  _211
REMARK   93  A    between atoms: _211  and  _212
REMARK   94  A    between atoms: _211  and  _214
REMARK   95  A    between atoms: _214  and  _215
REMARK   96  A    between atoms: _218  and  _220
REMARK   97  A    between atoms: _220  and  _221
REMARK   98  A    between atoms: _220  and  _223
REMARK   99  A    between atoms: _223  and  _224
REMARK  100  A    between atoms: _229  and  _231
REMARK  101  A    between atoms: _231  and  _232
REMARK  102  A    between atoms: _231  and  _234
REMARK  103  A    between atoms: _234  and  _235
REMARK  104  A    between atoms: _235  and  _236
REMARK  105  A    between atoms: _236  and  _237
REMARK  106  A    between atoms: _246  and  _248
REMARK  107  A    between atoms: _248  and  _249
REMARK  108  A    between atoms: _248  and  _251
REMARK  109  A    between atoms: _251  and  _252
REMARK  110  A    between atoms: _257  and  _259
REMARK  111  A    between atoms: _259  and  _260
REMARK  112  A    between atoms: _259  and  _262
REMARK  113  A    between atoms: _265  and  _267
REMARK  114  A    between atoms: _267  and  _268
REMARK  115  A    between atoms: _271  and  _273
REMARK  116  A    between atoms: _273  and  _274
REMARK  117  A    between atoms: _273  and  _276
REMARK  118  A    between atoms: _276  and  _277
REMARK  119  A    between atoms: _281  and  _282
REMARK  120  A    between atoms: _287  and  _289
REMARK  121  A    between atoms: _289  and  _290
REMARK  122  A    between atoms: _289  and  _292
REMARK  123  A    between atoms: _292  and  _293
REMARK  124  A    between atoms: _300  and  _301
REMARK  125  A    between atoms: _306  and  _308
REMARK  126  A    between atoms: _308  and  _309
REMARK  127  A    between atoms: _308  and  _311
REMARK  128  A    between atoms: _311  and  _312
REMARK  129  A    between atoms: _315  and  _317
REMARK  130  A    between atoms: _317  and  _318
REMARK  131  A    between atoms: _317  and  _320
REMARK  132  A    between atoms: _320  and  _321
REMARK  133  A    between atoms: _331  and  _333
REMARK  134  A    between atoms: _333  and  _334
REMARK  135  A    between atoms: _333  and  _336
REMARK  136  A    between atoms: _336  and  _337
REMARK  137  A    between atoms: _341  and  ZN_342
REMARK                            x       y       z     vdW  Elec       q    Type
REMARK                         _______ _______ _______ _____ _____    ______ ____
ROOT
ATOM      1  O   HOH     1     -49.048  16.921 -26.484  0.00  0.00    +0.000 OA
ENDROOT
TORSDOF 0
REMARK  Name = ../refined-set-2016/4f9u/4f9u_pocket.pdb
REMARK  137 active torsions:
REMARK  status: ('A' for Active; 'I' for Inactive)
REMARK    1  A    between atoms: _1  and  _3
REMARK    2  A    between atoms: _3  and  _4
REMARK    3  A    between atoms: _3  and  _6
REMARK    4  A    between atoms: _6  and  _7
REMARK    5  A    between atoms: _12  and  _14
REMARK    6  A    between atoms: _14  and  _15
REMARK    7  A    between atoms: _14  and  _17
REMARK    8  A    between atoms: _17  and  _18
REMARK    9  A    between atoms: _21  and  _23
REMARK   10  A    between atoms: _23  and  _24
REMARK   11  A    between atoms: _23  and  _26
REMARK   12  A    between atoms: _26  and  _27
REMARK   13  A    between atoms: _27  and  _28
REMARK   14  A    between atoms: _28  and  _29
REMARK   15  A    between atoms: _29  and  _30
REMARK   16  A    between atoms: _34  and  _36
REMARK   17  A    between atoms: _36  and  _37
REMARK   18  A    between atoms: _36  and  _39
REMARK   19  A    between atoms: _39  and  _40
REMARK   20  A    between atoms: _46  and  _48
REMARK   21  A    between atoms: _48  and  _49
REMARK   22  A    between atoms: _48  and  _51
REMARK   23  A    between atoms: _51  and  _52
REMARK   24  A    between atoms: _55  and  _57
REMARK   25  A    between atoms: _57  and  _58
REMARK   26  A    between atoms: _57  and  _60
REMARK   27  A    between atoms: _60  and  _61
REMARK   28  A    between atoms: _61  and  _63
REMARK   29  A    between atoms: _63  and  ZN_342
REMARK   30  A    between atoms: _64  and  _66
REMARK   31  A    between atoms: _66  and  _67
REMARK   32  A    between atoms: _66  and  _69
REMARK   33  A    between atoms: _69  and  _70
REMARK   34  A    between atoms: _72  and  _74
REMARK   35  A    between atoms: _74  and  _75
REMARK   36  A    between atoms: _74  and  _77
REMARK   37  A    between atoms: _77  and  _78
REMARK   38  A    between atoms: _78  and  _79
REMARK   39  A    between atoms: _82  and  _84
REMARK   40  A    between atoms: _84  and  _85
REMARK   41  A    between atoms: _84  and  _87
REMARK   42  A    between atoms: _87  and  _88
REMARK   43  A    between atoms: _88  and  _89
REMARK   44  A    between atoms: _89  and  _90
REMARK   45  A    between atoms: _90  and  ZN_342
REMARK   46  A    between atoms: _92  and  _94
REMARK   47  A    between atoms: _94  and  _95
REMARK   48  A    between atoms: _98  and  _100
REMARK   49  A    between atoms: _100  and  _101
REMARK   50  A    between atoms: _100  and  _103
REMARK   51  A    between atoms: _103  and  _104
REMARK   52  A    between atoms: _114  and  _116
REMARK   53  A    between atoms: _116  and  _117
REMARK   54  A    between atoms: _116  and  _119
REMARK   55  A    between atoms: _119  and  _120
REMARK   56  A    between atoms: _122  and  _124
REMARK   57  A    between atoms: _124  and  _125
REMARK   58  A    between atoms: _124  and  _127
REMARK   59  A    between atoms: _130  and  _132
REMARK   60  A    between atoms: _132  and  _133
REMARK   61  A    between atoms: _132  and  _135
REMARK   62  A    between atoms: _135  and  _136
REMARK   63  A    between atoms: _139  and  _141
REMARK   64  A    between atoms: _141  and  _142
REMARK   65  A    between atoms: _141  and  _144
REMARK   66  A    between atoms: _144  and  _145
REMARK   67  A    between atoms: _148  and  _150
REMARK   68  A    between atoms: _150  and  _151
REMARK   69  A    between atoms: _150  and  _153
REMARK   70  A    between atoms: _153  and  _154
REMARK   71  A    between atoms: _157  and  _159
REMARK   72  A    between atoms: _159  and  _160
REMARK   73  A    between atoms: _159  and  _162
REMARK   74  A    between atoms: _162  and  _163
REMARK   75  A    between atoms: _169  and  _171
REMARK   76  A    between atoms: _171  and  _172
REMARK   77  A    between atoms: _174  and  _176
REMARK   78  A    between atoms: _176  and  _177
REMARK   79  A    between atoms: _176  and  _179
REMARK   80  A    between atoms: _179  and  _180
REMARK   81  A    between atoms: _183  and  _185
REMARK   82  A    between atoms: _185  and  _186
REMARK   83  A    between atoms: _185  and  _188
REMARK   84  A    between atoms: _191  and  _193
REMARK   85  A    between atoms: _193  and  _194
REMARK   86  A    between atoms: _193  and  _196
REMARK   87  A    between atoms: _196  and  _197
REMARK   88  A    between atoms: _200  and  _202
REMARK   89  A    between atoms: _202  and  _203
REMARK   90  A    between atoms: _202  and  _205
REMARK   91  A    between atoms: _205  and  _206
REMARK   92  A    between atoms: _209  and  _211
REMARK   93  A    between atoms: _211  and  _212
REMARK   94  A    between atoms: _211  and  _214
REMARK   95  A    between atoms: _214  and  _215
REMARK   96  A    between atoms: _218  and  _220
REMARK   97  A    between atoms: _220  and  _221
REMARK   98  A    between atoms: _220  and  _223
REMARK   99  A    between atoms: _223  and  _224
REMARK  100  A    between atoms: _229  and  _231
REMARK  101  A    between atoms: _231  and  _232
REMARK  102  A    between atoms: _231  and  _234
REMARK  103  A    between atoms: _234  and  _235
REMARK  104  A    between atoms: _235  and  _236
REMARK  105  A    between atoms: _236  and  _237
REMARK  106  A    between atoms: _246  and  _248
REMARK  107  A    between atoms: _248  and  _249
REMARK  108  A    between atoms: _248  and  _251
REMARK  109  A    between atoms: _251  and  _252
REMARK  110  A    between atoms: _257  and  _259
REMARK  111  A    between atoms: _259  and  _260
REMARK  112  A    between atoms: _259  and  _262
REMARK  113  A    between atoms: _265  and  _267
REMARK  114  A    between atoms: _267  and  _268
REMARK  115  A    between atoms: _271  and  _273
REMARK  116  A    between atoms: _273  and  _274
REMARK  117  A    between atoms: _273  and  _276
REMARK  118  A    between atoms: _276  and  _277
REMARK  119  A    between atoms: _281  and  _282
REMARK  120  A    between atoms: _287  and  _289
REMARK  121  A    between atoms: _289  and  _290
REMARK  122  A    between atoms: _289  and  _292
REMARK  123  A    between atoms: _292  and  _293
REMARK  124  A    between atoms: _300  and  _301
REMARK  125  A    between atoms: _306  and  _308
REMARK  126  A    between atoms: _308  and  _309
REMARK  127  A    between atoms: _308  and  _311
REMARK  128  A    between atoms: _311  and  _312
REMARK  129  A    between atoms: _315  and  _317
REMARK  130  A    between atoms: _317  and  _318
REMARK  131  A    between atoms: _317  and  _320
REMARK  132  A    between atoms: _320  and  _321
REMARK  133  A    between atoms: _331  and  _333
REMARK  134  A    between atoms: _333  and  _334
REMARK  135  A    between atoms: _333  and  _336
REMARK  136  A    between atoms: _336  and  _337
REMARK  137  A    between atoms: _341  and  ZN_342
REMARK                            x       y       z     vdW  Elec       q    Type
REMARK                         _______ _______ _______ _____ _____    ______ ____
ROOT
ATOM      1  O   HOH     1     -48.077  26.753 -41.168  0.00  0.00    +0.000 OA
ENDROOT
TORSDOF 0
REMARK  Name = ../refined-set-2016/4f9u/4f9u_pocket.pdb
REMARK  137 active torsions:
REMARK  status: ('A' for Active; 'I' for Inactive)
REMARK    1  A    between atoms: _1  and  _3
REMARK    2  A    between atoms: _3  and  _4
REMARK    3  A    between atoms: _3  and  _6
REMARK    4  A    between atoms: _6  and  _7
REMARK    5  A    between atoms: _12  and  _14
REMARK    6  A    between atoms: _14  and  _15
REMARK    7  A    between atoms: _14  and  _17
REMARK    8  A    between atoms: _17  and  _18
REMARK    9  A    between atoms: _21  and  _23
REMARK   10  A    between atoms: _23  and  _24
REMARK   11  A    between atoms: _23  and  _26
REMARK   12  A    between atoms: _26  and  _27
REMARK   13  A    between atoms: _27  and  _28
REMARK   14  A    between atoms: _28  and  _29
REMARK   15  A    between atoms: _29  and  _30
REMARK   16  A    between atoms: _34  and  _36
REMARK   17  A    between atoms: _36  and  _37
REMARK   18  A    between atoms: _36  and  _39
REMARK   19  A    between atoms: _39  and  _40
REMARK   20  A    between atoms: _46  and  _48
REMARK   21  A    between atoms: _48  and  _49
REMARK   22  A    between atoms: _48  and  _51
REMARK   23  A    between atoms: _51  and  _52
REMARK   24  A    between atoms: _55  and  _57
REMARK   25  A    between atoms: _57  and  _58
REMARK   26  A    between atoms: _57  and  _60
REMARK   27  A    between atoms: _60  and  _61
REMARK   28  A    between atoms: _61  and  _63
REMARK   29  A    between atoms: _63  and  ZN_342
REMARK   30  A    between atoms: _64  and  _66
REMARK   31  A    between atoms: _66  and  _67
REMARK   32  A    between atoms: _66  and  _69
REMARK   33  A    between atoms: _69  and  _70
REMARK   34  A    between atoms: _72  and  _74
REMARK   35  A    between atoms: _74  and  _75
REMARK   36  A    between atoms: _74  and  _77
REMARK   37  A    between atoms: _77  and  _78
REMARK   38  A    between atoms: _78  and  _79
REMARK   39  A    between atoms: _82  and  _84
REMARK   40  A    between atoms: _84  and  _85
REMARK   41  A    between atoms: _84  and  _87
REMARK   42  A    between atoms: _87  and  _88
REMARK   43  A    between atoms: _88  and  _89
REMARK   44  A    between atoms: _89  and  _90
REMARK   45  A    between atoms: _90  and  ZN_342
REMARK   46  A    between atoms: _92  and  _94
REMARK   47  A    between atoms: _94  and  _95
REMARK   48  A    between atoms: _98  and  _100
REMARK   49  A    between atoms: _100  and  _101
REMARK   50  A    between atoms: _100  and  _103
REMARK   51  A    between atoms: _103  and  _104
REMARK   52  A    between atoms: _114  and  _116
REMARK   53  A    between atoms: _116  and  _117
REMARK   54  A    between atoms: _116  and  _119
REMARK   55  A    between atoms: _119  and  _120
REMARK   56  A    between atoms: _122  and  _124
REMARK   57  A    between atoms: _124  and  _125
REMARK   58  A    between atoms: _124  and  _127
REMARK   59  A    between atoms: _130  and  _132
REMARK   60  A    between atoms: _132  and  _133
REMARK   61  A    between atoms: _132  and  _135
REMARK   62  A    between atoms: _135  and  _136
REMARK   63  A    between atoms: _139  and  _141
REMARK   64  A    between atoms: _141  and  _142
REMARK   65  A    between atoms: _141  and  _144
REMARK   66  A    between atoms: _144  and  _145
REMARK   67  A    between atoms: _148  and  _150
REMARK   68  A    between atoms: _150  and  _151
REMARK   69  A    between atoms: _150  and  _153
REMARK   70  A    between atoms: _153  and  _154
REMARK   71  A    between atoms: _157  and  _159
REMARK   72  A    between atoms: _159  and  _160
REMARK   73  A    between atoms: _159  and  _162
REMARK   74  A    between atoms: _162  and  _163
REMARK   75  A    between atoms: _169  and  _171
REMARK   76  A    between atoms: _171  and  _172
REMARK   77  A    between atoms: _174  and  _176
REMARK   78  A    between atoms: _176  and  _177
REMARK   79  A    between atoms: _176  and  _179
REMARK   80  A    between atoms: _179  and  _180
REMARK   81  A    between atoms: _183  and  _185
REMARK   82  A    between atoms: _185  and  _186
REMARK   83  A    between atoms: _185  and  _188
REMARK   84  A    between atoms: _191  and  _193
REMARK   85  A    between atoms: _193  and  _194
REMARK   86  A    between atoms: _193  and  _196
REMARK   87  A    between atoms: _196  and  _197
REMARK   88  A    between atoms: _200  and  _202
REMARK   89  A    between atoms: _202  and  _203
REMARK   90  A    between atoms: _202  and  _205
REMARK   91  A    between atoms: _205  and  _206
REMARK   92  A    between atoms: _209  and  _211
REMARK   93  A    between atoms: _211  and  _212
REMARK   94  A    between atoms: _211  and  _214
REMARK   95  A    between atoms: _214  and  _215
REMARK   96  A    between atoms: _218  and  _220
REMARK   97  A    between atoms: _220  and  _221
REMARK   98  A    between atoms: _220  and  _223
REMARK   99  A    between atoms: _223  and  _224
REMARK  100  A    between atoms: _229  and  _231
REMARK  101  A    between atoms: _231  and  _232
REMARK  102  A    between atoms: _231  and  _234
REMARK  103  A    between atoms: _234  and  _235
REMARK  104  A    between atoms: _235  and  _236
REMARK  105  A    between atoms: _236  and  _237
REMARK  106  A    between atoms: _246  and  _248
REMARK  107  A    between atoms: _248  and  _249
REMARK  108  A    between atoms: _248  and  _251
REMARK  109  A    between atoms: _251  and  _252
REMARK  110  A    between atoms: _257  and  _259
REMARK  111  A    between atoms: _259  and  _260
REMARK  112  A    between atoms: _259  and  _262
REMARK  113  A    between atoms: _265  and  _267
REMARK  114  A    between atoms: _267  and  _268
REMARK  115  A    between atoms: _271  and  _273
REMARK  116  A    between atoms: _273  and  _274
REMARK  117  A    between atoms: _273  and  _276
REMARK  118  A    between atoms: _276  and  _277
REMARK  119  A    between atoms: _281  and  _282
REMARK  120  A    between atoms: _287  and  _289
REMARK  121  A    between atoms: _289  and  _290
REMARK  122  A    between atoms: _289  and  _292
REMARK  123  A    between atoms: _292  and  _293
REMARK  124  A    between atoms: _300  and  _301
REMARK  125  A    between atoms: _306  and  _308
REMARK  126  A    between atoms: _308  and  _309
REMARK  127  A    between atoms: _308  and  _311
REMARK  128  A    between atoms: _311  and  _312
REMARK  129  A    between atoms: _315  and  _317
REMARK  130  A    between atoms: _317  and  _318
REMARK  131  A    between atoms: _317  and  _320
REMARK  132  A    between atoms: _320  and  _321
REMARK  133  A    between atoms: _331  and  _333
REMARK  134  A    between atoms: _333  and  _334
REMARK  135  A    between atoms: _333  and  _336
REMARK  136  A    between atoms: _336  and  _337
REMARK  137  A    between atoms: _341  and  ZN_342
REMARK                            x       y       z     vdW  Elec       q    Type
REMARK                         _______ _______ _______ _____ _____    ______ ____
ROOT
ATOM      1  O   HOH     1     -46.518  20.961 -24.142  0.00  0.00    +0.000 OA
ENDROOT
TORSDOF 0
REMARK  Name = ../refined-set-2016/4f9u/4f9u_pocket.pdb
REMARK  137 active torsions:
REMARK  status: ('A' for Active; 'I' for Inactive)
REMARK    1  A    between atoms: _1  and  _3
REMARK    2  A    between atoms: _3  and  _4
REMARK    3  A    between atoms: _3  and  _6
REMARK    4  A    between atoms: _6  and  _7
REMARK    5  A    between atoms: _12  and  _14
REMARK    6  A    between atoms: _14  and  _15
REMARK    7  A    between atoms: _14  and  _17
REMARK    8  A    between atoms: _17  and  _18
REMARK    9  A    between atoms: _21  and  _23
REMARK   10  A    between atoms: _23  and  _24
REMARK   11  A    between atoms: _23  and  _26
REMARK   12  A    between atoms: _26  and  _27
REMARK   13  A    between atoms: _27  and  _28
REMARK   14  A    between atoms: _28  and  _29
REMARK   15  A    between atoms: _29  and  _30
REMARK   16  A    between atoms: _34  and  _36
REMARK   17  A    between atoms: _36  and  _37
REMARK   18  A    between atoms: _36  and  _39
REMARK   19  A    between atoms: _39  and  _40
REMARK   20  A    between atoms: _46  and  _48
REMARK   21  A    between atoms: _48  and  _49
REMARK   22  A    between atoms: _48  and  _51
REMARK   23  A    between atoms: _51  and  _52
REMARK   24  A    between atoms: _55  and  _57
REMARK   25  A    between atoms: _57  and  _58
REMARK   26  A    between atoms: _57  and  _60
REMARK   27  A    between atoms: _60  and  _61
REMARK   28  A    between atoms: _61  and  _63
REMARK   29  A    between atoms: _63  and  ZN_342
REMARK   30  A    between atoms: _64  and  _66
REMARK   31  A    between atoms: _66  and  _67
REMARK   32  A    between atoms: _66  and  _69
REMARK   33  A    between atoms: _69  and  _70
REMARK   34  A    between atoms: _72  and  _74
REMARK   35  A    between atoms: _74  and  _75
REMARK   36  A    between atoms: _74  and  _77
REMARK   37  A    between atoms: _77  and  _78
REMARK   38  A    between atoms: _78  and  _79
REMARK   39  A    between atoms: _82  and  _84
REMARK   40  A    between atoms: _84  and  _85
REMARK   41  A    between atoms: _84  and  _87
REMARK   42  A    between atoms: _87  and  _88
REMARK   43  A    between atoms: _88  and  _89
REMARK   44  A    between atoms: _89  and  _90
REMARK   45  A    between atoms: _90  and  ZN_342
REMARK   46  A    between atoms: _92  and  _94
REMARK   47  A    between atoms: _94  and  _95
REMARK   48  A    between atoms: _98  and  _100
REMARK   49  A    between atoms: _100  and  _101
REMARK   50  A    between atoms: _100  and  _103
REMARK   51  A    between atoms: _103  and  _104
REMARK   52  A    between atoms: _114  and  _116
REMARK   53  A    between atoms: _116  and  _117
REMARK   54  A    between atoms: _116  and  _119
REMARK   55  A    between atoms: _119  and  _120
REMARK   56  A    between atoms: _122  and  _124
REMARK   57  A    between atoms: _124  and  _125
REMARK   58  A    between atoms: _124  and  _127
REMARK   59  A    between atoms: _130  and  _132
REMARK   60  A    between atoms: _132  and  _133
REMARK   61  A    between atoms: _132  and  _135
REMARK   62  A    between atoms: _135  and  _136
REMARK   63  A    between atoms: _139  and  _141
REMARK   64  A    between atoms: _141  and  _142
REMARK   65  A    between atoms: _141  and  _144
REMARK   66  A    between atoms: _144  and  _145
REMARK   67  A    between atoms: _148  and  _150
REMARK   68  A    between atoms: _150  and  _151
REMARK   69  A    between atoms: _150  and  _153
REMARK   70  A    between atoms: _153  and  _154
REMARK   71  A    between atoms: _157  and  _159
REMARK   72  A    between atoms: _159  and  _160
REMARK   73  A    between atoms: _159  and  _162
REMARK   74  A    between atoms: _162  and  _163
REMARK   75  A    between atoms: _169  and  _171
REMARK   76  A    between atoms: _171  and  _172
REMARK   77  A    between atoms: _174  and  _176
REMARK   78  A    between atoms: _176  and  _177
REMARK   79  A    between atoms: _176  and  _179
REMARK   80  A    between atoms: _179  and  _180
REMARK   81  A    between atoms: _183  and  _185
REMARK   82  A    between atoms: _185  and  _186
REMARK   83  A    between atoms: _185  and  _188
REMARK   84  A    between atoms: _191  and  _193
REMARK   85  A    between atoms: _193  and  _194
REMARK   86  A    between atoms: _193  and  _196
REMARK   87  A    between atoms: _196  and  _197
REMARK   88  A    between atoms: _200  and  _202
REMARK   89  A    between atoms: _202  and  _203
REMARK   90  A    between atoms: _202  and  _205
REMARK   91  A    between atoms: _205  and  _206
REMARK   92  A    between atoms: _209  and  _211
REMARK   93  A    between atoms: _211  and  _212
REMARK   94  A    between atoms: _211  and  _214
REMARK   95  A    between atoms: _214  and  _215
REMARK   96  A    between atoms: _218  and  _220
REMARK   97  A    between atoms: _220  and  _221
REMARK   98  A    between atoms: _220  and  _223
REMARK   99  A    between atoms: _223  and  _224
REMARK  100  A    between atoms: _229  and  _231
REMARK  101  A    between atoms: _231  and  _232
REMARK  102  A    between atoms: _231  and  _234
REMARK  103  A    between atoms: _234  and  _235
REMARK  104  A    between atoms: _235  and  _236
REMARK  105  A    between atoms: _236  and  _237
REMARK  106  A    between atoms: _246  and  _248
REMARK  107  A    between atoms: _248  and  _249
REMARK  108  A    between atoms: _248  and  _251
REMARK  109  A    between atoms: _251  and  _252
REMARK  110  A    between atoms: _257  and  _259
REMARK  111  A    between atoms: _259  and  _260
REMARK  112  A    between atoms: _259  and  _262
REMARK  113  A    between atoms: _265  and  _267
REMARK  114  A    between atoms: _267  and  _268
REMARK  115  A    between atoms: _271  and  _273
REMARK  116  A    between atoms: _273  and  _274
REMARK  117  A    between atoms: _273  and  _276
REMARK  118  A    between atoms: _276  and  _277
REMARK  119  A    between atoms: _281  and  _282
REMARK  120  A    between atoms: _287  and  _289
REMARK  121  A    between atoms: _289  and  _290
REMARK  122  A    between atoms: _289  and  _292
REMARK  123  A    between atoms: _292  and  _293
REMARK  124  A    between atoms: _300  and  _301
REMARK  125  A    between atoms: _306  and  _308
REMARK  126  A    between atoms: _308  and  _309
REMARK  127  A    between atoms: _308  and  _311
REMARK  128  A    between atoms: _311  and  _312
REMARK  129  A    between atoms: _315  and  _317
REMARK  130  A    between atoms: _317  and  _318
REMARK  131  A    between atoms: _317  and  _320
REMARK  132  A    between atoms: _320  and  _321
REMARK  133  A    between atoms: _331  and  _333
REMARK  134  A    between atoms: _333  and  _334
REMARK  135  A    between atoms: _333  and  _336
REMARK  136  A    between atoms: _336  and  _337
REMARK  137  A    between atoms: _341  and  ZN_342
REMARK                            x       y       z     vdW  Elec       q    Type
REMARK                         _______ _______ _______ _____ _____    ______ ____
ROOT
ATOM      1  O   HOH     1     -53.681  31.484 -33.777  0.00  0.00    +0.000 OA
ENDROOT
TORSDOF 0
REMARK  Name = ../refined-set-2016/4f9u/4f9u_pocket.pdb
REMARK  137 active torsions:
REMARK  status: ('A' for Active; 'I' for Inactive)
REMARK    1  A    between atoms: _1  and  _3
REMARK    2  A    between atoms: _3  and  _4
REMARK    3  A    between atoms: _3  and  _6
REMARK    4  A    between atoms: _6  and  _7
REMARK    5  A    between atoms: _12  and  _14
REMARK    6  A    between atoms: _14  and  _15
REMARK    7  A    between atoms: _14  and  _17
REMARK    8  A    between atoms: _17  and  _18
REMARK    9  A    between atoms: _21  and  _23
REMARK   10  A    between atoms: _23  and  _24
REMARK   11  A    between atoms: _23  and  _26
REMARK   12  A    between atoms: _26  and  _27
REMARK   13  A    between atoms: _27  and  _28
REMARK   14  A    between atoms: _28  and  _29
REMARK   15  A    between atoms: _29  and  _30
REMARK   16  A    between atoms: _34  and  _36
REMARK   17  A    between atoms: _36  and  _37
REMARK   18  A    between atoms: _36  and  _39
REMARK   19  A    between atoms: _39  and  _40
REMARK   20  A    between atoms: _46  and  _48
REMARK   21  A    between atoms: _48  and  _49
REMARK   22  A    between atoms: _48  and  _51
REMARK   23  A    between atoms: _51  and  _52
REMARK   24  A    between atoms: _55  and  _57
REMARK   25  A    between atoms: _57  and  _58
REMARK   26  A    between atoms: _57  and  _60
REMARK   27  A    between atoms: _60  and  _61
REMARK   28  A    between atoms: _61  and  _63
REMARK   29  A    between atoms: _63  and  ZN_342
REMARK   30  A    between atoms: _64  and  _66
REMARK   31  A    between atoms: _66  and  _67
REMARK   32  A    between atoms: _66  and  _69
REMARK   33  A    between atoms: _69  and  _70
REMARK   34  A    between atoms: _72  and  _74
REMARK   35  A    between atoms: _74  and  _75
REMARK   36  A    between atoms: _74  and  _77
REMARK   37  A    between atoms: _77  and  _78
REMARK   38  A    between atoms: _78  and  _79
REMARK   39  A    between atoms: _82  and  _84
REMARK   40  A    between atoms: _84  and  _85
REMARK   41  A    between atoms: _84  and  _87
REMARK   42  A    between atoms: _87  and  _88
REMARK   43  A    between atoms: _88  and  _89
REMARK   44  A    between atoms: _89  and  _90
REMARK   45  A    between atoms: _90  and  ZN_342
REMARK   46  A    between atoms: _92  and  _94
REMARK   47  A    between atoms: _94  and  _95
REMARK   48  A    between atoms: _98  and  _100
REMARK   49  A    between atoms: _100  and  _101
REMARK   50  A    between atoms: _100  and  _103
REMARK   51  A    between atoms: _103  and  _104
REMARK   52  A    between atoms: _114  and  _116
REMARK   53  A    between atoms: _116  and  _117
REMARK   54  A    between atoms: _116  and  _119
REMARK   55  A    between atoms: _119  and  _120
REMARK   56  A    between atoms: _122  and  _124
REMARK   57  A    between atoms: _124  and  _125
REMARK   58  A    between atoms: _124  and  _127
REMARK   59  A    between atoms: _130  and  _132
REMARK   60  A    between atoms: _132  and  _133
REMARK   61  A    between atoms: _132  and  _135
REMARK   62  A    between atoms: _135  and  _136
REMARK   63  A    between atoms: _139  and  _141
REMARK   64  A    between atoms: _141  and  _142
REMARK   65  A    between atoms: _141  and  _144
REMARK   66  A    between atoms: _144  and  _145
REMARK   67  A    between atoms: _148  and  _150
REMARK   68  A    between atoms: _150  and  _151
REMARK   69  A    between atoms: _150  and  _153
REMARK   70  A    between atoms: _153  and  _154
REMARK   71  A    between atoms: _157  and  _159
REMARK   72  A    between atoms: _159  and  _160
REMARK   73  A    between atoms: _159  and  _162
REMARK   74  A    between atoms: _162  and  _163
REMARK   75  A    between atoms: _169  and  _171
REMARK   76  A    between atoms: _171  and  _172
REMARK   77  A    between atoms: _174  and  _176
REMARK   78  A    between atoms: _176  and  _177
REMARK   79  A    between atoms: _176  and  _179
REMARK   80  A    between atoms: _179  and  _180
REMARK   81  A    between atoms: _183  and  _185
REMARK   82  A    between atoms: _185  and  _186
REMARK   83  A    between atoms: _185  and  _188
REMARK   84  A    between atoms: _191  and  _193
REMARK   85  A    between atoms: _193  and  _194
REMARK   86  A    between atoms: _193  and  _196
REMARK   87  A    between atoms: _196  and  _197
REMARK   88  A    between atoms: _200  and  _202
REMARK   89  A    between atoms: _202  and  _203
REMARK   90  A    between atoms: _202  and  _205
REMARK   91  A    between atoms: _205  and  _206
REMARK   92  A    between atoms: _209  and  _211
REMARK   93  A    between atoms: _211  and  _212
REMARK   94  A    between atoms: _211  and  _214
REMARK   95  A    between atoms: _214  and  _215
REMARK   96  A    between atoms: _218  and  _220
REMARK   97  A    between atoms: _220  and  _221
REMARK   98  A    between atoms: _220  and  _223
REMARK   99  A    between atoms: _223  and  _224
REMARK  100  A    between atoms: _229  and  _231
REMARK  101  A    between atoms: _231  and  _232
REMARK  102  A    between atoms: _231  and  _234
REMARK  103  A    between atoms: _234  and  _235
REMARK  104  A    between atoms: _235  and  _236
REMARK  105  A    between atoms: _236  and  _237
REMARK  106  A    between atoms: _246  and  _248
REMARK  107  A    between atoms: _248  and  _249
REMARK  108  A    between atoms: _248  and  _251
REMARK  109  A    between atoms: _251  and  _252
REMARK  110  A    between atoms: _257  and  _259
REMARK  111  A    between atoms: _259  and  _260
REMARK  112  A    between atoms: _259  and  _262
REMARK  113  A    between atoms: _265  and  _267
REMARK  114  A    between atoms: _267  and  _268
REMARK  115  A    between atoms: _271  and  _273
REMARK  116  A    between atoms: _273  and  _274
REMARK  117  A    between atoms: _273  and  _276
REMARK  118  A    between atoms: _276  and  _277
REMARK  119  A    between atoms: _281  and  _282
REMARK  120  A    between atoms: _287  and  _289
REMARK  121  A    between atoms: _289  and  _290
REMARK  122  A    between atoms: _289  and  _292
REMARK  123  A    between atoms: _292  and  _293
REMARK  124  A    between atoms: _300  and  _301
REMARK  125  A    between atoms: _306  and  _308
REMARK  126  A    between atoms: _308  and  _309
REMARK  127  A    between atoms: _308  and  _311
REMARK  128  A    between atoms: _311  and  _312
REMARK  129  A    between atoms: _315  and  _317
REMARK  130  A    between atoms: _317  and  _318
REMARK  131  A    between atoms: _317  and  _320
REMARK  132  A    between atoms: _320  and  _321
REMARK  133  A    between atoms: _331  and  _333
REMARK  134  A    between atoms: _333  and  _334
REMARK  135  A    between atoms: _333  and  _336
REMARK  136  A    between atoms: _336  and  _337
REMARK  137  A    between atoms: _341  and  ZN_342
REMARK                            x       y       z     vdW  Elec       q    Type
REMARK                         _______ _______ _______ _____ _____    ______ ____
ROOT
ATOM      1  O   HOH     1     -50.039  28.409 -39.936  0.00  0.00    +0.000 OA
ENDROOT
TORSDOF 0
REMARK  Name = ../refined-set-2016/4f9u/4f9u_pocket.pdb
REMARK  137 active torsions:
REMARK  status: ('A' for Active; 'I' for Inactive)
REMARK    1  A    between atoms: _1  and  _3
REMARK    2  A    between atoms: _3  and  _4
REMARK    3  A    between atoms: _3  and  _6
REMARK    4  A    between atoms: _6  and  _7
REMARK    5  A    between atoms: _12  and  _14
REMARK    6  A    between atoms: _14  and  _15
REMARK    7  A    between atoms: _14  and  _17
REMARK    8  A    between atoms: _17  and  _18
REMARK    9  A    between atoms: _21  and  _23
REMARK   10  A    between atoms: _23  and  _24
REMARK   11  A    between atoms: _23  and  _26
REMARK   12  A    between atoms: _26  and  _27
REMARK   13  A    between atoms: _27  and  _28
REMARK   14  A    between atoms: _28  and  _29
REMARK   15  A    between atoms: _29  and  _30
REMARK   16  A    between atoms: _34  and  _36
REMARK   17  A    between atoms: _36  and  _37
REMARK   18  A    between atoms: _36  and  _39
REMARK   19  A    between atoms: _39  and  _40
REMARK   20  A    between atoms: _46  and  _48
REMARK   21  A    between atoms: _48  and  _49
REMARK   22  A    between atoms: _48  and  _51
REMARK   23  A    between atoms: _51  and  _52
REMARK   24  A    between atoms: _55  and  _57
REMARK   25  A    between atoms: _57  and  _58
REMARK   26  A    between atoms: _57  and  _60
REMARK   27  A    between atoms: _60  and  _61
REMARK   28  A    between atoms: _61  and  _63
REMARK   29  A    between atoms: _63  and  ZN_342
REMARK   30  A    between atoms: _64  and  _66
REMARK   31  A    between atoms: _66  and  _67
REMARK   32  A    between atoms: _66  and  _69
REMARK   33  A    between atoms: _69  and  _70
REMARK   34  A    between atoms: _72  and  _74
REMARK   35  A    between atoms: _74  and  _75
REMARK   36  A    between atoms: _74  and  _77
REMARK   37  A    between atoms: _77  and  _78
REMARK   38  A    between atoms: _78  and  _79
REMARK   39  A    between atoms: _82  and  _84
REMARK   40  A    between atoms: _84  and  _85
REMARK   41  A    between atoms: _84  and  _87
REMARK   42  A    between atoms: _87  and  _88
REMARK   43  A    between atoms: _88  and  _89
REMARK   44  A    between atoms: _89  and  _90
REMARK   45  A    between atoms: _90  and  ZN_342
REMARK   46  A    between atoms: _92  and  _94
REMARK   47  A    between atoms: _94  and  _95
REMARK   48  A    between atoms: _98  and  _100
REMARK   49  A    between atoms: _100  and  _101
REMARK   50  A    between atoms: _100  and  _103
REMARK   51  A    between atoms: _103  and  _104
REMARK   52  A    between atoms: _114  and  _116
REMARK   53  A    between atoms: _116  and  _117
REMARK   54  A    between atoms: _116  and  _119
REMARK   55  A    between atoms: _119  and  _120
REMARK   56  A    between atoms: _122  and  _124
REMARK   57  A    between atoms: _124  and  _125
REMARK   58  A    between atoms: _124  and  _127
REMARK   59  A    between atoms: _130  and  _132
REMARK   60  A    between atoms: _132  and  _133
REMARK   61  A    between atoms: _132  and  _135
REMARK   62  A    between atoms: _135  and  _136
REMARK   63  A    between atoms: _139  and  _141
REMARK   64  A    between atoms: _141  and  _142
REMARK   65  A    between atoms: _141  and  _144
REMARK   66  A    between atoms: _144  and  _145
REMARK   67  A    between atoms: _148  and  _150
REMARK   68  A    between atoms: _150  and  _151
REMARK   69  A    between atoms: _150  and  _153
REMARK   70  A    between atoms: _153  and  _154
REMARK   71  A    between atoms: _157  and  _159
REMARK   72  A    between atoms: _159  and  _160
REMARK   73  A    between atoms: _159  and  _162
REMARK   74  A    between atoms: _162  and  _163
REMARK   75  A    between atoms: _169  and  _171
REMARK   76  A    between atoms: _171  and  _172
REMARK   77  A    between atoms: _174  and  _176
REMARK   78  A    between atoms: _176  and  _177
REMARK   79  A    between atoms: _176  and  _179
REMARK   80  A    between atoms: _179  and  _180
REMARK   81  A    between atoms: _183  and  _185
REMARK   82  A    between atoms: _185  and  _186
REMARK   83  A    between atoms: _185  and  _188
REMARK   84  A    between atoms: _191  and  _193
REMARK   85  A    between atoms: _193  and  _194
REMARK   86  A    between atoms: _193  and  _196
REMARK   87  A    between atoms: _196  and  _197
REMARK   88  A    between atoms: _200  and  _202
REMARK   89  A    between atoms: _202  and  _203
REMARK   90  A    between atoms: _202  and  _205
REMARK   91  A    between atoms: _205  and  _206
REMARK   92  A    between atoms: _209  and  _211
REMARK   93  A    between atoms: _211  and  _212
REMARK   94  A    between atoms: _211  and  _214
REMARK   95  A    between atoms: _214  and  _215
REMARK   96  A    between atoms: _218  and  _220
REMARK   97  A    between atoms: _220  and  _221
REMARK   98  A    between atoms: _220  and  _223
REMARK   99  A    between atoms: _223  and  _224
REMARK  100  A    between atoms: _229  and  _231
REMARK  101  A    between atoms: _231  and  _232
REMARK  102  A    between atoms: _231  and  _234
REMARK  103  A    between atoms: _234  and  _235
REMARK  104  A    between atoms: _235  and  _236
REMARK  105  A    between atoms: _236  and  _237
REMARK  106  A    between atoms: _246  and  _248
REMARK  107  A    between atoms: _248  and  _249
REMARK  108  A    between atoms: _248  and  _251
REMARK  109  A    between atoms: _251  and  _252
REMARK  110  A    between atoms: _257  and  _259
REMARK  111  A    between atoms: _259  and  _260
REMARK  112  A    between atoms: _259  and  _262
REMARK  113  A    between atoms: _265  and  _267
REMARK  114  A    between atoms: _267  and  _268
REMARK  115  A    between atoms: _271  and  _273
REMARK  116  A    between atoms: _273  and  _274
REMARK  117  A    between atoms: _273  and  _276
REMARK  118  A    between atoms: _276  and  _277
REMARK  119  A    between atoms: _281  and  _282
REMARK  120  A    between atoms: _287  and  _289
REMARK  121  A    between atoms: _289  and  _290
REMARK  122  A    between atoms: _289  and  _292
REMARK  123  A    between atoms: _292  and  _293
REMARK  124  A    between atoms: _300  and  _301
REMARK  125  A    between atoms: _306  and  _308
REMARK  126  A    between atoms: _308  and  _309
REMARK  127  A    between atoms: _308  and  _311
REMARK  128  A    between atoms: _311  and  _312
REMARK  129  A    between atoms: _315  and  _317
REMARK  130  A    between atoms: _317  and  _318
REMARK  131  A    between atoms: _317  and  _320
REMARK  132  A    between atoms: _320  and  _321
REMARK  133  A    between atoms: _331  and  _333
REMARK  134  A    between atoms: _333  and  _334
REMARK  135  A    between atoms: _333  and  _336
REMARK  136  A    between atoms: _336  and  _337
REMARK  137  A    between atoms: _341  and  ZN_342
REMARK                            x       y       z     vdW  Elec       q    Type
REMARK                         _______ _______ _______ _____ _____    ______ ____
ROOT
ATOM      1  O   HOH     1     -52.674  27.859 -39.132  0.00  0.00    +0.000 OA
ENDROOT
TORSDOF 0
REMARK  Name = ../refined-set-2016/4f9u/4f9u_pocket.pdb
REMARK  137 active torsions:
REMARK  status: ('A' for Active; 'I' for Inactive)
REMARK    1  A    between atoms: _1  and  _3
REMARK    2  A    between atoms: _3  and  _4
REMARK    3  A    between atoms: _3  and  _6
REMARK    4  A    between atoms: _6  and  _7
REMARK    5  A    between atoms: _12  and  _14
REMARK    6  A    between atoms: _14  and  _15
REMARK    7  A    between atoms: _14  and  _17
REMARK    8  A    between atoms: _17  and  _18
REMARK    9  A    between atoms: _21  and  _23
REMARK   10  A    between atoms: _23  and  _24
REMARK   11  A    between atoms: _23  and  _26
REMARK   12  A    between atoms: _26  and  _27
REMARK   13  A    between atoms: _27  and  _28
REMARK   14  A    between atoms: _28  and  _29
REMARK   15  A    between atoms: _29  and  _30
REMARK   16  A    between atoms: _34  and  _36
REMARK   17  A    between atoms: _36  and  _37
REMARK   18  A    between atoms: _36  and  _39
REMARK   19  A    between atoms: _39  and  _40
REMARK   20  A    between atoms: _46  and  _48
REMARK   21  A    between atoms: _48  and  _49
REMARK   22  A    between atoms: _48  and  _51
REMARK   23  A    between atoms: _51  and  _52
REMARK   24  A    between atoms: _55  and  _57
REMARK   25  A    between atoms: _57  and  _58
REMARK   26  A    between atoms: _57  and  _60
REMARK   27  A    between atoms: _60  and  _61
REMARK   28  A    between atoms: _61  and  _63
REMARK   29  A    between atoms: _63  and  ZN_342
REMARK   30  A    between atoms: _64  and  _66
REMARK   31  A    between atoms: _66  and  _67
REMARK   32  A    between atoms: _66  and  _69
REMARK   33  A    between atoms: _69  and  _70
REMARK   34  A    between atoms: _72  and  _74
REMARK   35  A    between atoms: _74  and  _75
REMARK   36  A    between atoms: _74  and  _77
REMARK   37  A    between atoms: _77  and  _78
REMARK   38  A    between atoms: _78  and  _79
REMARK   39  A    between atoms: _82  and  _84
REMARK   40  A    between atoms: _84  and  _85
REMARK   41  A    between atoms: _84  and  _87
REMARK   42  A    between atoms: _87  and  _88
REMARK   43  A    between atoms: _88  and  _89
REMARK   44  A    between atoms: _89  and  _90
REMARK   45  A    between atoms: _90  and  ZN_342
REMARK   46  A    between atoms: _92  and  _94
REMARK   47  A    between atoms: _94  and  _95
REMARK   48  A    between atoms: _98  and  _100
REMARK   49  A    between atoms: _100  and  _101
REMARK   50  A    between atoms: _100  and  _103
REMARK   51  A    between atoms: _103  and  _104
REMARK   52  A    between atoms: _114  and  _116
REMARK   53  A    between atoms: _116  and  _117
REMARK   54  A    between atoms: _116  and  _119
REMARK   55  A    between atoms: _119  and  _120
REMARK   56  A    between atoms: _122  and  _124
REMARK   57  A    between atoms: _124  and  _125
REMARK   58  A    between atoms: _124  and  _127
REMARK   59  A    between atoms: _130  and  _132
REMARK   60  A    between atoms: _132  and  _133
REMARK   61  A    between atoms: _132  and  _135
REMARK   62  A    between atoms: _135  and  _136
REMARK   63  A    between atoms: _139  and  _141
REMARK   64  A    between atoms: _141  and  _142
REMARK   65  A    between atoms: _141  and  _144
REMARK   66  A    between atoms: _144  and  _145
REMARK   67  A    between atoms: _148  and  _150
REMARK   68  A    between atoms: _150  and  _151
REMARK   69  A    between atoms: _150  and  _153
REMARK   70  A    between atoms: _153  and  _154
REMARK   71  A    between atoms: _157  and  _159
REMARK   72  A    between atoms: _159  and  _160
REMARK   73  A    between atoms: _159  and  _162
REMARK   74  A    between atoms: _162  and  _163
REMARK   75  A    between atoms: _169  and  _171
REMARK   76  A    between atoms: _171  and  _172
REMARK   77  A    between atoms: _174  and  _176
REMARK   78  A    between atoms: _176  and  _177
REMARK   79  A    between atoms: _176  and  _179
REMARK   80  A    between atoms: _179  and  _180
REMARK   81  A    between atoms: _183  and  _185
REMARK   82  A    between atoms: _185  and  _186
REMARK   83  A    between atoms: _185  and  _188
REMARK   84  A    between atoms: _191  and  _193
REMARK   85  A    between atoms: _193  and  _194
REMARK   86  A    between atoms: _193  and  _196
REMARK   87  A    between atoms: _196  and  _197
REMARK   88  A    between atoms: _200  and  _202
REMARK   89  A    between atoms: _202  and  _203
REMARK   90  A    between atoms: _202  and  _205
REMARK   91  A    between atoms: _205  and  _206
REMARK   92  A    between atoms: _209  and  _211
REMARK   93  A    between atoms: _211  and  _212
REMARK   94  A    between atoms: _211  and  _214
REMARK   95  A    between atoms: _214  and  _215
REMARK   96  A    between atoms: _218  and  _220
REMARK   97  A    between atoms: _220  and  _221
REMARK   98  A    between atoms: _220  and  _223
REMARK   99  A    between atoms: _223  and  _224
REMARK  100  A    between atoms: _229  and  _231
REMARK  101  A    between atoms: _231  and  _232
REMARK  102  A    between atoms: _231  and  _234
REMARK  103  A    between atoms: _234  and  _235
REMARK  104  A    between atoms: _235  and  _236
REMARK  105  A    between atoms: _236  and  _237
REMARK  106  A    between atoms: _246  and  _248
REMARK  107  A    between atoms: _248  and  _249
REMARK  108  A    between atoms: _248  and  _251
REMARK  109  A    between atoms: _251  and  _252
REMARK  110  A    between atoms: _257  and  _259
REMARK  111  A    between atoms: _259  and  _260
REMARK  112  A    between atoms: _259  and  _262
REMARK  113  A    between atoms: _265  and  _267
REMARK  114  A    between atoms: _267  and  _268
REMARK  115  A    between atoms: _271  and  _273
REMARK  116  A    between atoms: _273  and  _274
REMARK  117  A    between atoms: _273  and  _276
REMARK  118  A    between atoms: _276  and  _277
REMARK  119  A    between atoms: _281  and  _282
REMARK  120  A    between atoms: _287  and  _289
REMARK  121  A    between atoms: _289  and  _290
REMARK  122  A    between atoms: _289  and  _292
REMARK  123  A    between atoms: _292  and  _293
REMARK  124  A    between atoms: _300  and  _301
REMARK  125  A    between atoms: _306  and  _308
REMARK  126  A    between atoms: _308  and  _309
REMARK  127  A    between atoms: _308  and  _311
REMARK  128  A    between atoms: _311  and  _312
REMARK  129  A    between atoms: _315  and  _317
REMARK  130  A    between atoms: _317  and  _318
REMARK  131  A    between atoms: _317  and  _320
REMARK  132  A    between atoms: _320  and  _321
REMARK  133  A    between atoms: _331  and  _333
REMARK  134  A    between atoms: _333  and  _334
REMARK  135  A    between atoms: _333  and  _336
REMARK  136  A    between atoms: _336  and  _337
REMARK  137  A    between atoms: _341  and  ZN_342
REMARK                            x       y       z     vdW  Elec       q    Type
REMARK                         _______ _______ _______ _____ _____    ______ ____
ROOT
ATOM      1  O   HOH     1     -42.876  24.720 -31.508  0.00  0.00    +0.000 OA
ENDROOT
TORSDOF 0
REMARK  Name = ../refined-set-2016/4f9u/4f9u_pocket.pdb
REMARK  137 active torsions:
REMARK  status: ('A' for Active; 'I' for Inactive)
REMARK    1  A    between atoms: _1  and  _3
REMARK    2  A    between atoms: _3  and  _4
REMARK    3  A    between atoms: _3  and  _6
REMARK    4  A    between atoms: _6  and  _7
REMARK    5  A    between atoms: _12  and  _14
REMARK    6  A    between atoms: _14  and  _15
REMARK    7  A    between atoms: _14  and  _17
REMARK    8  A    between atoms: _17  and  _18
REMARK    9  A    between atoms: _21  and  _23
REMARK   10  A    between atoms: _23  and  _24
REMARK   11  A    between atoms: _23  and  _26
REMARK   12  A    between atoms: _26  and  _27
REMARK   13  A    between atoms: _27  and  _28
REMARK   14  A    between atoms: _28  and  _29
REMARK   15  A    between atoms: _29  and  _30
REMARK   16  A    between atoms: _34  and  _36
REMARK   17  A    between atoms: _36  and  _37
REMARK   18  A    between atoms: _36  and  _39
REMARK   19  A    between atoms: _39  and  _40
REMARK   20  A    between atoms: _46  and  _48
REMARK   21  A    between atoms: _48  and  _49
REMARK   22  A    between atoms: _48  and  _51
REMARK   23  A    between atoms: _51  and  _52
REMARK   24  A    between atoms: _55  and  _57
REMARK   25  A    between atoms: _57  and  _58
REMARK   26  A    between atoms: _57  and  _60
REMARK   27  A    between atoms: _60  and  _61
REMARK   28  A    between atoms: _61  and  _63
REMARK   29  A    between atoms: _63  and  ZN_342
REMARK   30  A    between atoms: _64  and  _66
REMARK   31  A    between atoms: _66  and  _67
REMARK   32  A    between atoms: _66  and  _69
REMARK   33  A    between atoms: _69  and  _70
REMARK   34  A    between atoms: _72  and  _74
REMARK   35  A    between atoms: _74  and  _75
REMARK   36  A    between atoms: _74  and  _77
REMARK   37  A    between atoms: _77  and  _78
REMARK   38  A    between atoms: _78  and  _79
REMARK   39  A    between atoms: _82  and  _84
REMARK   40  A    between atoms: _84  and  _85
REMARK   41  A    between atoms: _84  and  _87
REMARK   42  A    between atoms: _87  and  _88
REMARK   43  A    between atoms: _88  and  _89
REMARK   44  A    between atoms: _89  and  _90
REMARK   45  A    between atoms: _90  and  ZN_342
REMARK   46  A    between atoms: _92  and  _94
REMARK   47  A    between atoms: _94  and  _95
REMARK   48  A    between atoms: _98  and  _100
REMARK   49  A    between atoms: _100  and  _101
REMARK   50  A    between atoms: _100  and  _103
REMARK   51  A    between atoms: _103  and  _104
REMARK   52  A    between atoms: _114  and  _116
REMARK   53  A    between atoms: _116  and  _117
REMARK   54  A    between atoms: _116  and  _119
REMARK   55  A    between atoms: _119  and  _120
REMARK   56  A    between atoms: _122  and  _124
REMARK   57  A    between atoms: _124  and  _125
REMARK   58  A    between atoms: _124  and  _127
REMARK   59  A    between atoms: _130  and  _132
REMARK   60  A    between atoms: _132  and  _133
REMARK   61  A    between atoms: _132  and  _135
REMARK   62  A    between atoms: _135  and  _136
REMARK   63  A    between atoms: _139  and  _141
REMARK   64  A    between atoms: _141  and  _142
REMARK   65  A    between atoms: _141  and  _144
REMARK   66  A    between atoms: _144  and  _145
REMARK   67  A    between atoms: _148  and  _150
REMARK   68  A    between atoms: _150  and  _151
REMARK   69  A    between atoms: _150  and  _153
REMARK   70  A    between atoms: _153  and  _154
REMARK   71  A    between atoms: _157  and  _159
REMARK   72  A    between atoms: _159  and  _160
REMARK   73  A    between atoms: _159  and  _162
REMARK   74  A    between atoms: _162  and  _163
REMARK   75  A    between atoms: _169  and  _171
REMARK   76  A    between atoms: _171  and  _172
REMARK   77  A    between atoms: _174  and  _176
REMARK   78  A    between atoms: _176  and  _177
REMARK   79  A    between atoms: _176  and  _179
REMARK   80  A    between atoms: _179  and  _180
REMARK   81  A    between atoms: _183  and  _185
REMARK   82  A    between atoms: _185  and  _186
REMARK   83  A    between atoms: _185  and  _188
REMARK   84  A    between atoms: _191  and  _193
REMARK   85  A    between atoms: _193  and  _194
REMARK   86  A    between atoms: _193  and  _196
REMARK   87  A    between atoms: _196  and  _197
REMARK   88  A    between atoms: _200  and  _202
REMARK   89  A    between atoms: _202  and  _203
REMARK   90  A    between atoms: _202  and  _205
REMARK   91  A    between atoms: _205  and  _206
REMARK   92  A    between atoms: _209  and  _211
REMARK   93  A    between atoms: _211  and  _212
REMARK   94  A    between atoms: _211  and  _214
REMARK   95  A    between atoms: _214  and  _215
REMARK   96  A    between atoms: _218  and  _220
REMARK   97  A    between atoms: _220  and  _221
REMARK   98  A    between atoms: _220  and  _223
REMARK   99  A    between atoms: _223  and  _224
REMARK  100  A    between atoms: _229  and  _231
REMARK  101  A    between atoms: _231  and  _232
REMARK  102  A    between atoms: _231  and  _234
REMARK  103  A    between atoms: _234  and  _235
REMARK  104  A    between atoms: _235  and  _236
REMARK  105  A    between atoms: _236  and  _237
REMARK  106  A    between atoms: _246  and  _248
REMARK  107  A    between atoms: _248  and  _249
REMARK  108  A    between atoms: _248  and  _251
REMARK  109  A    between atoms: _251  and  _252
REMARK  110  A    between atoms: _257  and  _259
REMARK  111  A    between atoms: _259  and  _260
REMARK  112  A    between atoms: _259  and  _262
REMARK  113  A    between atoms: _265  and  _267
REMARK  114  A    between atoms: _267  and  _268
REMARK  115  A    between atoms: _271  and  _273
REMARK  116  A    between atoms: _273  and  _274
REMARK  117  A    between atoms: _273  and  _276
REMARK  118  A    between atoms: _276  and  _277
REMARK  119  A    between atoms: _281  and  _282
REMARK  120  A    between atoms: _287  and  _289
REMARK  121  A    between atoms: _289  and  _290
REMARK  122  A    between atoms: _289  and  _292
REMARK  123  A    between atoms: _292  and  _293
REMARK  124  A    between atoms: _300  and  _301
REMARK  125  A    between atoms: _306  and  _308
REMARK  126  A    between atoms: _308  and  _309
REMARK  127  A    between atoms: _308  and  _311
REMARK  128  A    between atoms: _311  and  _312
REMARK  129  A    between atoms: _315  and  _317
REMARK  130  A    between atoms: _317  and  _318
REMARK  131  A    between atoms: _317  and  _320
REMARK  132  A    between atoms: _320  and  _321
REMARK  133  A    between atoms: _331  and  _333
REMARK  134  A    between atoms: _333  and  _334
REMARK  135  A    between atoms: _333  and  _336
REMARK  136  A    between atoms: _336  and  _337
REMARK  137  A    between atoms: _341  and  ZN_342
REMARK                            x       y       z     vdW  Elec       q    Type
REMARK                         _______ _______ _______ _____ _____    ______ ____
ROOT
ATOM      1  O   HOH     1     -49.252  30.340 -38.342  0.00  0.00    +0.000 OA
ENDROOT
TORSDOF 0
REMARK  Name = ../refined-set-2016/4f9u/4f9u_pocket.pdb
REMARK  137 active torsions:
REMARK  status: ('A' for Active; 'I' for Inactive)
REMARK    1  A    between atoms: _1  and  _3
REMARK    2  A    between atoms: _3  and  _4
REMARK    3  A    between atoms: _3  and  _6
REMARK    4  A    between atoms: _6  and  _7
REMARK    5  A    between atoms: _12  and  _14
REMARK    6  A    between atoms: _14  and  _15
REMARK    7  A    between atoms: _14  and  _17
REMARK    8  A    between atoms: _17  and  _18
REMARK    9  A    between atoms: _21  and  _23
REMARK   10  A    between atoms: _23  and  _24
REMARK   11  A    between atoms: _23  and  _26
REMARK   12  A    between atoms: _26  and  _27
REMARK   13  A    between atoms: _27  and  _28
REMARK   14  A    between atoms: _28  and  _29
REMARK   15  A    between atoms: _29  and  _30
REMARK   16  A    between atoms: _34  and  _36
REMARK   17  A    between atoms: _36  and  _37
REMARK   18  A    between atoms: _36  and  _39
REMARK   19  A    between atoms: _39  and  _40
REMARK   20  A    between atoms: _46  and  _48
REMARK   21  A    between atoms: _48  and  _49
REMARK   22  A    between atoms: _48  and  _51
REMARK   23  A    between atoms: _51  and  _52
REMARK   24  A    between atoms: _55  and  _57
REMARK   25  A    between atoms: _57  and  _58
REMARK   26  A    between atoms: _57  and  _60
REMARK   27  A    between atoms: _60  and  _61
REMARK   28  A    between atoms: _61  and  _63
REMARK   29  A    between atoms: _63  and  ZN_342
REMARK   30  A    between atoms: _64  and  _66
REMARK   31  A    between atoms: _66  and  _67
REMARK   32  A    between atoms: _66  and  _69
REMARK   33  A    between atoms: _69  and  _70
REMARK   34  A    between atoms: _72  and  _74
REMARK   35  A    between atoms: _74  and  _75
REMARK   36  A    between atoms: _74  and  _77
REMARK   37  A    between atoms: _77  and  _78
REMARK   38  A    between atoms: _78  and  _79
REMARK   39  A    between atoms: _82  and  _84
REMARK   40  A    between atoms: _84  and  _85
REMARK   41  A    between atoms: _84  and  _87
REMARK   42  A    between atoms: _87  and  _88
REMARK   43  A    between atoms: _88  and  _89
REMARK   44  A    between atoms: _89  and  _90
REMARK   45  A    between atoms: _90  and  ZN_342
REMARK   46  A    between atoms: _92  and  _94
REMARK   47  A    between atoms: _94  and  _95
REMARK   48  A    between atoms: _98  and  _100
REMARK   49  A    between atoms: _100  and  _101
REMARK   50  A    between atoms: _100  and  _103
REMARK   51  A    between atoms: _103  and  _104
REMARK   52  A    between atoms: _114  and  _116
REMARK   53  A    between atoms: _116  and  _117
REMARK   54  A    between atoms: _116  and  _119
REMARK   55  A    between atoms: _119  and  _120
REMARK   56  A    between atoms: _122  and  _124
REMARK   57  A    between atoms: _124  and  _125
REMARK   58  A    between atoms: _124  and  _127
REMARK   59  A    between atoms: _130  and  _132
REMARK   60  A    between atoms: _132  and  _133
REMARK   61  A    between atoms: _132  and  _135
REMARK   62  A    between atoms: _135  and  _136
REMARK   63  A    between atoms: _139  and  _141
REMARK   64  A    between atoms: _141  and  _142
REMARK   65  A    between atoms: _141  and  _144
REMARK   66  A    between atoms: _144  and  _145
REMARK   67  A    between atoms: _148  and  _150
REMARK   68  A    between atoms: _150  and  _151
REMARK   69  A    between atoms: _150  and  _153
REMARK   70  A    between atoms: _153  and  _154
REMARK   71  A    between atoms: _157  and  _159
REMARK   72  A    between atoms: _159  and  _160
REMARK   73  A    between atoms: _159  and  _162
REMARK   74  A    between atoms: _162  and  _163
REMARK   75  A    between atoms: _169  and  _171
REMARK   76  A    between atoms: _171  and  _172
REMARK   77  A    between atoms: _174  and  _176
REMARK   78  A    between atoms: _176  and  _177
REMARK   79  A    between atoms: _176  and  _179
REMARK   80  A    between atoms: _179  and  _180
REMARK   81  A    between atoms: _183  and  _185
REMARK   82  A    between atoms: _185  and  _186
REMARK   83  A    between atoms: _185  and  _188
REMARK   84  A    between atoms: _191  and  _193
REMARK   85  A    between atoms: _193  and  _194
REMARK   86  A    between atoms: _193  and  _196
REMARK   87  A    between atoms: _196  and  _197
REMARK   88  A    between atoms: _200  and  _202
REMARK   89  A    between atoms: _202  and  _203
REMARK   90  A    between atoms: _202  and  _205
REMARK   91  A    between atoms: _205  and  _206
REMARK   92  A    between atoms: _209  and  _211
REMARK   93  A    between atoms: _211  and  _212
REMARK   94  A    between atoms: _211  and  _214
REMARK   95  A    between atoms: _214  and  _215
REMARK   96  A    between atoms: _218  and  _220
REMARK   97  A    between atoms: _220  and  _221
REMARK   98  A    between atoms: _220  and  _223
REMARK   99  A    between atoms: _223  and  _224
REMARK  100  A    between atoms: _229  and  _231
REMARK  101  A    between atoms: _231  and  _232
REMARK  102  A    between atoms: _231  and  _234
REMARK  103  A    between atoms: _234  and  _235
REMARK  104  A    between atoms: _235  and  _236
REMARK  105  A    between atoms: _236  and  _237
REMARK  106  A    between atoms: _246  and  _248
REMARK  107  A    between atoms: _248  and  _249
REMARK  108  A    between atoms: _248  and  _251
REMARK  109  A    between atoms: _251  and  _252
REMARK  110  A    between atoms: _257  and  _259
REMARK  111  A    between atoms: _259  and  _260
REMARK  112  A    between atoms: _259  and  _262
REMARK  113  A    between atoms: _265  and  _267
REMARK  114  A    between atoms: _267  and  _268
REMARK  115  A    between atoms: _271  and  _273
REMARK  116  A    between atoms: _273  and  _274
REMARK  117  A    between atoms: _273  and  _276
REMARK  118  A    between atoms: _276  and  _277
REMARK  119  A    between atoms: _281  and  _282
REMARK  120  A    between atoms: _287  and  _289
REMARK  121  A    between atoms: _289  and  _290
REMARK  122  A    between atoms: _289  and  _292
REMARK  123  A    between atoms: _292  and  _293
REMARK  124  A    between atoms: _300  and  _301
REMARK  125  A    between atoms: _306  and  _308
REMARK  126  A    between atoms: _308  and  _309
REMARK  127  A    between atoms: _308  and  _311
REMARK  128  A    between atoms: _311  and  _312
REMARK  129  A    between atoms: _315  and  _317
REMARK  130  A    between atoms: _317  and  _318
REMARK  131  A    between atoms: _317  and  _320
REMARK  132  A    between atoms: _320  and  _321
REMARK  133  A    between atoms: _331  and  _333
REMARK  134  A    between atoms: _333  and  _334
REMARK  135  A    between atoms: _333  and  _336
REMARK  136  A    between atoms: _336  and  _337
REMARK  137  A    between atoms: _341  and  ZN_342
REMARK                            x       y       z     vdW  Elec       q    Type
REMARK                         _______ _______ _______ _____ _____    ______ ____
ROOT
ATOM      1  O   HOH     1     -55.661  25.703 -26.371  0.00  0.00    +0.000 OA
ENDROOT
TORSDOF 0
REMARK  Name = ../refined-set-2016/4f9u/4f9u_pocket.pdb
REMARK  137 active torsions:
REMARK  status: ('A' for Active; 'I' for Inactive)
REMARK    1  A    between atoms: _1  and  _3
REMARK    2  A    between atoms: _3  and  _4
REMARK    3  A    between atoms: _3  and  _6
REMARK    4  A    between atoms: _6  and  _7
REMARK    5  A    between atoms: _12  and  _14
REMARK    6  A    between atoms: _14  and  _15
REMARK    7  A    between atoms: _14  and  _17
REMARK    8  A    between atoms: _17  and  _18
REMARK    9  A    between atoms: _21  and  _23
REMARK   10  A    between atoms: _23  and  _24
REMARK   11  A    between atoms: _23  and  _26
REMARK   12  A    between atoms: _26  and  _27
REMARK   13  A    between atoms: _27  and  _28
REMARK   14  A    between atoms: _28  and  _29
REMARK   15  A    between atoms: _29  and  _30
REMARK   16  A    between atoms: _34  and  _36
REMARK   17  A    between atoms: _36  and  _37
REMARK   18  A    between atoms: _36  and  _39
REMARK   19  A    between atoms: _39  and  _40
REMARK   20  A    between atoms: _46  and  _48
REMARK   21  A    between atoms: _48  and  _49
REMARK   22  A    between atoms: _48  and  _51
REMARK   23  A    between atoms: _51  and  _52
REMARK   24  A    between atoms: _55  and  _57
REMARK   25  A    between atoms: _57  and  _58
REMARK   26  A    between atoms: _57  and  _60
REMARK   27  A    between atoms: _60  and  _61
REMARK   28  A    between atoms: _61  and  _63
REMARK   29  A    between atoms: _63  and  ZN_342
REMARK   30  A    between atoms: _64  and  _66
REMARK   31  A    between atoms: _66  and  _67
REMARK   32  A    between atoms: _66  and  _69
REMARK   33  A    between atoms: _69  and  _70
REMARK   34  A    between atoms: _72  and  _74
REMARK   35  A    between atoms: _74  and  _75
REMARK   36  A    between atoms: _74  and  _77
REMARK   37  A    between atoms: _77  and  _78
REMARK   38  A    between atoms: _78  and  _79
REMARK   39  A    between atoms: _82  and  _84
REMARK   40  A    between atoms: _84  and  _85
REMARK   41  A    between atoms: _84  and  _87
REMARK   42  A    between atoms: _87  and  _88
REMARK   43  A    between atoms: _88  and  _89
REMARK   44  A    between atoms: _89  and  _90
REMARK   45  A    between atoms: _90  and  ZN_342
REMARK   46  A    between atoms: _92  and  _94
REMARK   47  A    between atoms: _94  and  _95
REMARK   48  A    between atoms: _98  and  _100
REMARK   49  A    between atoms: _100  and  _101
REMARK   50  A    between atoms: _100  and  _103
REMARK   51  A    between atoms: _103  and  _104
REMARK   52  A    between atoms: _114  and  _116
REMARK   53  A    between atoms: _116  and  _117
REMARK   54  A    between atoms: _116  and  _119
REMARK   55  A    between atoms: _119  and  _120
REMARK   56  A    between atoms: _122  and  _124
REMARK   57  A    between atoms: _124  and  _125
REMARK   58  A    between atoms: _124  and  _127
REMARK   59  A    between atoms: _130  and  _132
REMARK   60  A    between atoms: _132  and  _133
REMARK   61  A    between atoms: _132  and  _135
REMARK   62  A    between atoms: _135  and  _136
REMARK   63  A    between atoms: _139  and  _141
REMARK   64  A    between atoms: _141  and  _142
REMARK   65  A    between atoms: _141  and  _144
REMARK   66  A    between atoms: _144  and  _145
REMARK   67  A    between atoms: _148  and  _150
REMARK   68  A    between atoms: _150  and  _151
REMARK   69  A    between atoms: _150  and  _153
REMARK   70  A    between atoms: _153  and  _154
REMARK   71  A    between atoms: _157  and  _159
REMARK   72  A    between atoms: _159  and  _160
REMARK   73  A    between atoms: _159  and  _162
REMARK   74  A    between atoms: _162  and  _163
REMARK   75  A    between atoms: _169  and  _171
REMARK   76  A    between atoms: _171  and  _172
REMARK   77  A    between atoms: _174  and  _176
REMARK   78  A    between atoms: _176  and  _177
REMARK   79  A    between atoms: _176  and  _179
REMARK   80  A    between atoms: _179  and  _180
REMARK   81  A    between atoms: _183  and  _185
REMARK   82  A    between atoms: _185  and  _186
REMARK   83  A    between atoms: _185  and  _188
REMARK   84  A    between atoms: _191  and  _193
REMARK   85  A    between atoms: _193  and  _194
REMARK   86  A    between atoms: _193  and  _196
REMARK   87  A    between atoms: _196  and  _197
REMARK   88  A    between atoms: _200  and  _202
REMARK   89  A    between atoms: _202  and  _203
REMARK   90  A    between atoms: _202  and  _205
REMARK   91  A    between atoms: _205  and  _206
REMARK   92  A    between atoms: _209  and  _211
REMARK   93  A    between atoms: _211  and  _212
REMARK   94  A    between atoms: _211  and  _214
REMARK   95  A    between atoms: _214  and  _215
REMARK   96  A    between atoms: _218  and  _220
REMARK   97  A    between atoms: _220  and  _221
REMARK   98  A    between atoms: _220  and  _223
REMARK   99  A    between atoms: _223  and  _224
REMARK  100  A    between atoms: _229  and  _231
REMARK  101  A    between atoms: _231  and  _232
REMARK  102  A    between atoms: _231  and  _234
REMARK  103  A    between atoms: _234  and  _235
REMARK  104  A    between atoms: _235  and  _236
REMARK  105  A    between atoms: _236  and  _237
REMARK  106  A    between atoms: _246  and  _248
REMARK  107  A    between atoms: _248  and  _249
REMARK  108  A    between atoms: _248  and  _251
REMARK  109  A    between atoms: _251  and  _252
REMARK  110  A    between atoms: _257  and  _259
REMARK  111  A    between atoms: _259  and  _260
REMARK  112  A    between atoms: _259  and  _262
REMARK  113  A    between atoms: _265  and  _267
REMARK  114  A    between atoms: _267  and  _268
REMARK  115  A    between atoms: _271  and  _273
REMARK  116  A    between atoms: _273  and  _274
REMARK  117  A    between atoms: _273  and  _276
REMARK  118  A    between atoms: _276  and  _277
REMARK  119  A    between atoms: _281  and  _282
REMARK  120  A    between atoms: _287  and  _289
REMARK  121  A    between atoms: _289  and  _290
REMARK  122  A    between atoms: _289  and  _292
REMARK  123  A    between atoms: _292  and  _293
REMARK  124  A    between atoms: _300  and  _301
REMARK  125  A    between atoms: _306  and  _308
REMARK  126  A    between atoms: _308  and  _309
REMARK  127  A    between atoms: _308  and  _311
REMARK  128  A    between atoms: _311  and  _312
REMARK  129  A    between atoms: _315  and  _317
REMARK  130  A    between atoms: _317  and  _318
REMARK  131  A    between atoms: _317  and  _320
REMARK  132  A    between atoms: _320  and  _321
REMARK  133  A    between atoms: _331  and  _333
REMARK  134  A    between atoms: _333  and  _334
REMARK  135  A    between atoms: _333  and  _336
REMARK  136  A    between atoms: _336  and  _337
REMARK  137  A    between atoms: _341  and  ZN_342
REMARK                            x       y       z     vdW  Elec       q    Type
REMARK                         _______ _______ _______ _____ _____    ______ ____
ROOT
ATOM      1  O   HOH     1     -55.567  21.565 -26.452  0.00  0.00    +0.000 OA
ENDROOT
TORSDOF 0
REMARK  Name = ../refined-set-2016/4f9u/4f9u_pocket.pdb
REMARK  137 active torsions:
REMARK  status: ('A' for Active; 'I' for Inactive)
REMARK    1  A    between atoms: _1  and  _3
REMARK    2  A    between atoms: _3  and  _4
REMARK    3  A    between atoms: _3  and  _6
REMARK    4  A    between atoms: _6  and  _7
REMARK    5  A    between atoms: _12  and  _14
REMARK    6  A    between atoms: _14  and  _15
REMARK    7  A    between atoms: _14  and  _17
REMARK    8  A    between atoms: _17  and  _18
REMARK    9  A    between atoms: _21  and  _23
REMARK   10  A    between atoms: _23  and  _24
REMARK   11  A    between atoms: _23  and  _26
REMARK   12  A    between atoms: _26  and  _27
REMARK   13  A    between atoms: _27  and  _28
REMARK   14  A    between atoms: _28  and  _29
REMARK   15  A    between atoms: _29  and  _30
REMARK   16  A    between atoms: _34  and  _36
REMARK   17  A    between atoms: _36  and  _37
REMARK   18  A    between atoms: _36  and  _39
REMARK   19  A    between atoms: _39  and  _40
REMARK   20  A    between atoms: _46  and  _48
REMARK   21  A    between atoms: _48  and  _49
REMARK   22  A    between atoms: _48  and  _51
REMARK   23  A    between atoms: _51  and  _52
REMARK   24  A    between atoms: _55  and  _57
REMARK   25  A    between atoms: _57  and  _58
REMARK   26  A    between atoms: _57  and  _60
REMARK   27  A    between atoms: _60  and  _61
REMARK   28  A    between atoms: _61  and  _63
REMARK   29  A    between atoms: _63  and  ZN_342
REMARK   30  A    between atoms: _64  and  _66
REMARK   31  A    between atoms: _66  and  _67
REMARK   32  A    between atoms: _66  and  _69
REMARK   33  A    between atoms: _69  and  _70
REMARK   34  A    between atoms: _72  and  _74
REMARK   35  A    between atoms: _74  and  _75
REMARK   36  A    between atoms: _74  and  _77
REMARK   37  A    between atoms: _77  and  _78
REMARK   38  A    between atoms: _78  and  _79
REMARK   39  A    between atoms: _82  and  _84
REMARK   40  A    between atoms: _84  and  _85
REMARK   41  A    between atoms: _84  and  _87
REMARK   42  A    between atoms: _87  and  _88
REMARK   43  A    between atoms: _88  and  _89
REMARK   44  A    between atoms: _89  and  _90
REMARK   45  A    between atoms: _90  and  ZN_342
REMARK   46  A    between atoms: _92  and  _94
REMARK   47  A    between atoms: _94  and  _95
REMARK   48  A    between atoms: _98  and  _100
REMARK   49  A    between atoms: _100  and  _101
REMARK   50  A    between atoms: _100  and  _103
REMARK   51  A    between atoms: _103  and  _104
REMARK   52  A    between atoms: _114  and  _116
REMARK   53  A    between atoms: _116  and  _117
REMARK   54  A    between atoms: _116  and  _119
REMARK   55  A    between atoms: _119  and  _120
REMARK   56  A    between atoms: _122  and  _124
REMARK   57  A    between atoms: _124  and  _125
REMARK   58  A    between atoms: _124  and  _127
REMARK   59  A    between atoms: _130  and  _132
REMARK   60  A    between atoms: _132  and  _133
REMARK   61  A    between atoms: _132  and  _135
REMARK   62  A    between atoms: _135  and  _136
REMARK   63  A    between atoms: _139  and  _141
REMARK   64  A    between atoms: _141  and  _142
REMARK   65  A    between atoms: _141  and  _144
REMARK   66  A    between atoms: _144  and  _145
REMARK   67  A    between atoms: _148  and  _150
REMARK   68  A    between atoms: _150  and  _151
REMARK   69  A    between atoms: _150  and  _153
REMARK   70  A    between atoms: _153  and  _154
REMARK   71  A    between atoms: _157  and  _159
REMARK   72  A    between atoms: _159  and  _160
REMARK   73  A    between atoms: _159  and  _162
REMARK   74  A    between atoms: _162  and  _163
REMARK   75  A    between atoms: _169  and  _171
REMARK   76  A    between atoms: _171  and  _172
REMARK   77  A    between atoms: _174  and  _176
REMARK   78  A    between atoms: _176  and  _177
REMARK   79  A    between atoms: _176  and  _179
REMARK   80  A    between atoms: _179  and  _180
REMARK   81  A    between atoms: _183  and  _185
REMARK   82  A    between atoms: _185  and  _186
REMARK   83  A    between atoms: _185  and  _188
REMARK   84  A    between atoms: _191  and  _193
REMARK   85  A    between atoms: _193  and  _194
REMARK   86  A    between atoms: _193  and  _196
REMARK   87  A    between atoms: _196  and  _197
REMARK   88  A    between atoms: _200  and  _202
REMARK   89  A    between atoms: _202  and  _203
REMARK   90  A    between atoms: _202  and  _205
REMARK   91  A    between atoms: _205  and  _206
REMARK   92  A    between atoms: _209  and  _211
REMARK   93  A    between atoms: _211  and  _212
REMARK   94  A    between atoms: _211  and  _214
REMARK   95  A    between atoms: _214  and  _215
REMARK   96  A    between atoms: _218  and  _220
REMARK   97  A    between atoms: _220  and  _221
REMARK   98  A    between atoms: _220  and  _223
REMARK   99  A    between atoms: _223  and  _224
REMARK  100  A    between atoms: _229  and  _231
REMARK  101  A    between atoms: _231  and  _232
REMARK  102  A    between atoms: _231  and  _234
REMARK  103  A    between atoms: _234  and  _235
REMARK  104  A    between atoms: _235  and  _236
REMARK  105  A    between atoms: _236  and  _237
REMARK  106  A    between atoms: _246  and  _248
REMARK  107  A    between atoms: _248  and  _249
REMARK  108  A    between atoms: _248  and  _251
REMARK  109  A    between atoms: _251  and  _252
REMARK  110  A    between atoms: _257  and  _259
REMARK  111  A    between atoms: _259  and  _260
REMARK  112  A    between atoms: _259  and  _262
REMARK  113  A    between atoms: _265  and  _267
REMARK  114  A    between atoms: _267  and  _268
REMARK  115  A    between atoms: _271  and  _273
REMARK  116  A    between atoms: _273  and  _274
REMARK  117  A    between atoms: _273  and  _276
REMARK  118  A    between atoms: _276  and  _277
REMARK  119  A    between atoms: _281  and  _282
REMARK  120  A    between atoms: _287  and  _289
REMARK  121  A    between atoms: _289  and  _290
REMARK  122  A    between atoms: _289  and  _292
REMARK  123  A    between atoms: _292  and  _293
REMARK  124  A    between atoms: _300  and  _301
REMARK  125  A    between atoms: _306  and  _308
REMARK  126  A    between atoms: _308  and  _309
REMARK  127  A    between atoms: _308  and  _311
REMARK  128  A    between atoms: _311  and  _312
REMARK  129  A    between atoms: _315  and  _317
REMARK  130  A    between atoms: _317  and  _318
REMARK  131  A    between atoms: _317  and  _320
REMARK  132  A    between atoms: _320  and  _321
REMARK  133  A    between atoms: _331  and  _333
REMARK  134  A    between atoms: _333  and  _334
REMARK  135  A    between atoms: _333  and  _336
REMARK  136  A    between atoms: _336  and  _337
REMARK  137  A    between atoms: _341  and  ZN_342
REMARK                            x       y       z     vdW  Elec       q    Type
REMARK                         _______ _______ _______ _____ _____    ______ ____
ROOT
ATOM      1  O   HOH     1     -53.375  24.394 -27.995  0.00  0.00    +0.000 OA
ENDROOT
TORSDOF 0
REMARK  Name = ../refined-set-2016/4f9u/4f9u_pocket.pdb
REMARK  137 active torsions:
REMARK  status: ('A' for Active; 'I' for Inactive)
REMARK    1  A    between atoms: _1  and  _3
REMARK    2  A    between atoms: _3  and  _4
REMARK    3  A    between atoms: _3  and  _6
REMARK    4  A    between atoms: _6  and  _7
REMARK    5  A    between atoms: _12  and  _14
REMARK    6  A    between atoms: _14  and  _15
REMARK    7  A    between atoms: _14  and  _17
REMARK    8  A    between atoms: _17  and  _18
REMARK    9  A    between atoms: _21  and  _23
REMARK   10  A    between atoms: _23  and  _24
REMARK   11  A    between atoms: _23  and  _26
REMARK   12  A    between atoms: _26  and  _27
REMARK   13  A    between atoms: _27  and  _28
REMARK   14  A    between atoms: _28  and  _29
REMARK   15  A    between atoms: _29  and  _30
REMARK   16  A    between atoms: _34  and  _36
REMARK   17  A    between atoms: _36  and  _37
REMARK   18  A    between atoms: _36  and  _39
REMARK   19  A    between atoms: _39  and  _40
REMARK   20  A    between atoms: _46  and  _48
REMARK   21  A    between atoms: _48  and  _49
REMARK   22  A    between atoms: _48  and  _51
REMARK   23  A    between atoms: _51  and  _52
REMARK   24  A    between atoms: _55  and  _57
REMARK   25  A    between atoms: _57  and  _58
REMARK   26  A    between atoms: _57  and  _60
REMARK   27  A    between atoms: _60  and  _61
REMARK   28  A    between atoms: _61  and  _63
REMARK   29  A    between atoms: _63  and  ZN_342
REMARK   30  A    between atoms: _64  and  _66
REMARK   31  A    between atoms: _66  and  _67
REMARK   32  A    between atoms: _66  and  _69
REMARK   33  A    between atoms: _69  and  _70
REMARK   34  A    between atoms: _72  and  _74
REMARK   35  A    between atoms: _74  and  _75
REMARK   36  A    between atoms: _74  and  _77
REMARK   37  A    between atoms: _77  and  _78
REMARK   38  A    between atoms: _78  and  _79
REMARK   39  A    between atoms: _82  and  _84
REMARK   40  A    between atoms: _84  and  _85
REMARK   41  A    between atoms: _84  and  _87
REMARK   42  A    between atoms: _87  and  _88
REMARK   43  A    between atoms: _88  and  _89
REMARK   44  A    between atoms: _89  and  _90
REMARK   45  A    between atoms: _90  and  ZN_342
REMARK   46  A    between atoms: _92  and  _94
REMARK   47  A    between atoms: _94  and  _95
REMARK   48  A    between atoms: _98  and  _100
REMARK   49  A    between atoms: _100  and  _101
REMARK   50  A    between atoms: _100  and  _103
REMARK   51  A    between atoms: _103  and  _104
REMARK   52  A    between atoms: _114  and  _116
REMARK   53  A    between atoms: _116  and  _117
REMARK   54  A    between atoms: _116  and  _119
REMARK   55  A    between atoms: _119  and  _120
REMARK   56  A    between atoms: _122  and  _124
REMARK   57  A    between atoms: _124  and  _125
REMARK   58  A    between atoms: _124  and  _127
REMARK   59  A    between atoms: _130  and  _132
REMARK   60  A    between atoms: _132  and  _133
REMARK   61  A    between atoms: _132  and  _135
REMARK   62  A    between atoms: _135  and  _136
REMARK   63  A    between atoms: _139  and  _141
REMARK   64  A    between atoms: _141  and  _142
REMARK   65  A    between atoms: _141  and  _144
REMARK   66  A    between atoms: _144  and  _145
REMARK   67  A    between atoms: _148  and  _150
REMARK   68  A    between atoms: _150  and  _151
REMARK   69  A    between atoms: _150  and  _153
REMARK   70  A    between atoms: _153  and  _154
REMARK   71  A    between atoms: _157  and  _159
REMARK   72  A    between atoms: _159  and  _160
REMARK   73  A    between atoms: _159  and  _162
REMARK   74  A    between atoms: _162  and  _163
REMARK   75  A    between atoms: _169  and  _171
REMARK   76  A    between atoms: _171  and  _172
REMARK   77  A    between atoms: _174  and  _176
REMARK   78  A    between atoms: _176  and  _177
REMARK   79  A    between atoms: _176  and  _179
REMARK   80  A    between atoms: _179  and  _180
REMARK   81  A    between atoms: _183  and  _185
REMARK   82  A    between atoms: _185  and  _186
REMARK   83  A    between atoms: _185  and  _188
REMARK   84  A    between atoms: _191  and  _193
REMARK   85  A    between atoms: _193  and  _194
REMARK   86  A    between atoms: _193  and  _196
REMARK   87  A    between atoms: _196  and  _197
REMARK   88  A    between atoms: _200  and  _202
REMARK   89  A    between atoms: _202  and  _203
REMARK   90  A    between atoms: _202  and  _205
REMARK   91  A    between atoms: _205  and  _206
REMARK   92  A    between atoms: _209  and  _211
REMARK   93  A    between atoms: _211  and  _212
REMARK   94  A    between atoms: _211  and  _214
REMARK   95  A    between atoms: _214  and  _215
REMARK   96  A    between atoms: _218  and  _220
REMARK   97  A    between atoms: _220  and  _221
REMARK   98  A    between atoms: _220  and  _223
REMARK   99  A    between atoms: _223  and  _224
REMARK  100  A    between atoms: _229  and  _231
REMARK  101  A    between atoms: _231  and  _232
REMARK  102  A    between atoms: _231  and  _234
REMARK  103  A    between atoms: _234  and  _235
REMARK  104  A    between atoms: _235  and  _236
REMARK  105  A    between atoms: _236  and  _237
REMARK  106  A    between atoms: _246  and  _248
REMARK  107  A    between atoms: _248  and  _249
REMARK  108  A    between atoms: _248  and  _251
REMARK  109  A    between atoms: _251  and  _252
REMARK  110  A    between atoms: _257  and  _259
REMARK  111  A    between atoms: _259  and  _260
REMARK  112  A    between atoms: _259  and  _262
REMARK  113  A    between atoms: _265  and  _267
REMARK  114  A    between atoms: _267  and  _268
REMARK  115  A    between atoms: _271  and  _273
REMARK  116  A    between atoms: _273  and  _274
REMARK  117  A    between atoms: _273  and  _276
REMARK  118  A    between atoms: _276  and  _277
REMARK  119  A    between atoms: _281  and  _282
REMARK  120  A    between atoms: _287  and  _289
REMARK  121  A    between atoms: _289  and  _290
REMARK  122  A    between atoms: _289  and  _292
REMARK  123  A    between atoms: _292  and  _293
REMARK  124  A    between atoms: _300  and  _301
REMARK  125  A    between atoms: _306  and  _308
REMARK  126  A    between atoms: _308  and  _309
REMARK  127  A    between atoms: _308  and  _311
REMARK  128  A    between atoms: _311  and  _312
REMARK  129  A    between atoms: _315  and  _317
REMARK  130  A    between atoms: _317  and  _318
REMARK  131  A    between atoms: _317  and  _320
REMARK  132  A    between atoms: _320  and  _321
REMARK  133  A    between atoms: _331  and  _333
REMARK  134  A    between atoms: _333  and  _334
REMARK  135  A    between atoms: _333  and  _336
REMARK  136  A    between atoms: _336  and  _337
REMARK  137  A    between atoms: _341  and  ZN_342
REMARK                            x       y       z     vdW  Elec       q    Type
REMARK                         _______ _______ _______ _____ _____    ______ ____
ROOT
ATOM      1  O   HOH     1     -55.232  14.014 -28.787  0.00  0.00    +0.000 OA
ENDROOT
TORSDOF 0
REMARK  Name = ../refined-set-2016/4f9u/4f9u_pocket.pdb
REMARK  137 active torsions:
REMARK  status: ('A' for Active; 'I' for Inactive)
REMARK    1  A    between atoms: _1  and  _3
REMARK    2  A    between atoms: _3  and  _4
REMARK    3  A    between atoms: _3  and  _6
REMARK    4  A    between atoms: _6  and  _7
REMARK    5  A    between atoms: _12  and  _14
REMARK    6  A    between atoms: _14  and  _15
REMARK    7  A    between atoms: _14  and  _17
REMARK    8  A    between atoms: _17  and  _18
REMARK    9  A    between atoms: _21  and  _23
REMARK   10  A    between atoms: _23  and  _24
REMARK   11  A    between atoms: _23  and  _26
REMARK   12  A    between atoms: _26  and  _27
REMARK   13  A    between atoms: _27  and  _28
REMARK   14  A    between atoms: _28  and  _29
REMARK   15  A    between atoms: _29  and  _30
REMARK   16  A    between atoms: _34  and  _36
REMARK   17  A    between atoms: _36  and  _37
REMARK   18  A    between atoms: _36  and  _39
REMARK   19  A    between atoms: _39  and  _40
REMARK   20  A    between atoms: _46  and  _48
REMARK   21  A    between atoms: _48  and  _49
REMARK   22  A    between atoms: _48  and  _51
REMARK   23  A    between atoms: _51  and  _52
REMARK   24  A    between atoms: _55  and  _57
REMARK   25  A    between atoms: _57  and  _58
REMARK   26  A    between atoms: _57  and  _60
REMARK   27  A    between atoms: _60  and  _61
REMARK   28  A    between atoms: _61  and  _63
REMARK   29  A    between atoms: _63  and  ZN_342
REMARK   30  A    between atoms: _64  and  _66
REMARK   31  A    between atoms: _66  and  _67
REMARK   32  A    between atoms: _66  and  _69
REMARK   33  A    between atoms: _69  and  _70
REMARK   34  A    between atoms: _72  and  _74
REMARK   35  A    between atoms: _74  and  _75
REMARK   36  A    between atoms: _74  and  _77
REMARK   37  A    between atoms: _77  and  _78
REMARK   38  A    between atoms: _78  and  _79
REMARK   39  A    between atoms: _82  and  _84
REMARK   40  A    between atoms: _84  and  _85
REMARK   41  A    between atoms: _84  and  _87
REMARK   42  A    between atoms: _87  and  _88
REMARK   43  A    between atoms: _88  and  _89
REMARK   44  A    between atoms: _89  and  _90
REMARK   45  A    between atoms: _90  and  ZN_342
REMARK   46  A    between atoms: _92  and  _94
REMARK   47  A    between atoms: _94  and  _95
REMARK   48  A    between atoms: _98  and  _100
REMARK   49  A    between atoms: _100  and  _101
REMARK   50  A    between atoms: _100  and  _103
REMARK   51  A    between atoms: _103  and  _104
REMARK   52  A    between atoms: _114  and  _116
REMARK   53  A    between atoms: _116  and  _117
REMARK   54  A    between atoms: _116  and  _119
REMARK   55  A    between atoms: _119  and  _120
REMARK   56  A    between atoms: _122  and  _124
REMARK   57  A    between atoms: _124  and  _125
REMARK   58  A    between atoms: _124  and  _127
REMARK   59  A    between atoms: _130  and  _132
REMARK   60  A    between atoms: _132  and  _133
REMARK   61  A    between atoms: _132  and  _135
REMARK   62  A    between atoms: _135  and  _136
REMARK   63  A    between atoms: _139  and  _141
REMARK   64  A    between atoms: _141  and  _142
REMARK   65  A    between atoms: _141  and  _144
REMARK   66  A    between atoms: _144  and  _145
REMARK   67  A    between atoms: _148  and  _150
REMARK   68  A    between atoms: _150  and  _151
REMARK   69  A    between atoms: _150  and  _153
REMARK   70  A    between atoms: _153  and  _154
REMARK   71  A    between atoms: _157  and  _159
REMARK   72  A    between atoms: _159  and  _160
REMARK   73  A    between atoms: _159  and  _162
REMARK   74  A    between atoms: _162  and  _163
REMARK   75  A    between atoms: _169  and  _171
REMARK   76  A    between atoms: _171  and  _172
REMARK   77  A    between atoms: _174  and  _176
REMARK   78  A    between atoms: _176  and  _177
REMARK   79  A    between atoms: _176  and  _179
REMARK   80  A    between atoms: _179  and  _180
REMARK   81  A    between atoms: _183  and  _185
REMARK   82  A    between atoms: _185  and  _186
REMARK   83  A    between atoms: _185  and  _188
REMARK   84  A    between atoms: _191  and  _193
REMARK   85  A    between atoms: _193  and  _194
REMARK   86  A    between atoms: _193  and  _196
REMARK   87  A    between atoms: _196  and  _197
REMARK   88  A    between atoms: _200  and  _202
REMARK   89  A    between atoms: _202  and  _203
REMARK   90  A    between atoms: _202  and  _205
REMARK   91  A    between atoms: _205  and  _206
REMARK   92  A    between atoms: _209  and  _211
REMARK   93  A    between atoms: _211  and  _212
REMARK   94  A    between atoms: _211  and  _214
REMARK   95  A    between atoms: _214  and  _215
REMARK   96  A    between atoms: _218  and  _220
REMARK   97  A    between atoms: _220  and  _221
REMARK   98  A    between atoms: _220  and  _223
REMARK   99  A    between atoms: _223  and  _224
REMARK  100  A    between atoms: _229  and  _231
REMARK  101  A    between atoms: _231  and  _232
REMARK  102  A    between atoms: _231  and  _234
REMARK  103  A    between atoms: _234  and  _235
REMARK  104  A    between atoms: _235  and  _236
REMARK  105  A    between atoms: _236  and  _237
REMARK  106  A    between atoms: _246  and  _248
REMARK  107  A    between atoms: _248  and  _249
REMARK  108  A    between atoms: _248  and  _251
REMARK  109  A    between atoms: _251  and  _252
REMARK  110  A    between atoms: _257  and  _259
REMARK  111  A    between atoms: _259  and  _260
REMARK  112  A    between atoms: _259  and  _262
REMARK  113  A    between atoms: _265  and  _267
REMARK  114  A    between atoms: _267  and  _268
REMARK  115  A    between atoms: _271  and  _273
REMARK  116  A    between atoms: _273  and  _274
REMARK  117  A    between atoms: _273  and  _276
REMARK  118  A    between atoms: _276  and  _277
REMARK  119  A    between atoms: _281  and  _282
REMARK  120  A    between atoms: _287  and  _289
REMARK  121  A    between atoms: _289  and  _290
REMARK  122  A    between atoms: _289  and  _292
REMARK  123  A    between atoms: _292  and  _293
REMARK  124  A    between atoms: _300  and  _301
REMARK  125  A    between atoms: _306  and  _308
REMARK  126  A    between atoms: _308  and  _309
REMARK  127  A    between atoms: _308  and  _311
REMARK  128  A    between atoms: _311  and  _312
REMARK  129  A    between atoms: _315  and  _317
REMARK  130  A    between atoms: _317  and  _318
REMARK  131  A    between atoms: _317  and  _320
REMARK  132  A    between atoms: _320  and  _321
REMARK  133  A    between atoms: _331  and  _333
REMARK  134  A    between atoms: _333  and  _334
REMARK  135  A    between atoms: _333  and  _336
REMARK  136  A    between atoms: _336  and  _337
REMARK  137  A    between atoms: _341  and  ZN_342
REMARK                            x       y       z     vdW  Elec       q    Type
REMARK                         _______ _______ _______ _____ _____    ______ ____
ROOT
ATOM      1  O   HOH     1     -54.186  15.314 -36.260  0.00  0.00    +0.000 OA
ENDROOT
TORSDOF 0
REMARK  Name = ../refined-set-2016/4f9u/4f9u_pocket.pdb
REMARK  137 active torsions:
REMARK  status: ('A' for Active; 'I' for Inactive)
REMARK    1  A    between atoms: _1  and  _3
REMARK    2  A    between atoms: _3  and  _4
REMARK    3  A    between atoms: _3  and  _6
REMARK    4  A    between atoms: _6  and  _7
REMARK    5  A    between atoms: _12  and  _14
REMARK    6  A    between atoms: _14  and  _15
REMARK    7  A    between atoms: _14  and  _17
REMARK    8  A    between atoms: _17  and  _18
REMARK    9  A    between atoms: _21  and  _23
REMARK   10  A    between atoms: _23  and  _24
REMARK   11  A    between atoms: _23  and  _26
REMARK   12  A    between atoms: _26  and  _27
REMARK   13  A    between atoms: _27  and  _28
REMARK   14  A    between atoms: _28  and  _29
REMARK   15  A    between atoms: _29  and  _30
REMARK   16  A    between atoms: _34  and  _36
REMARK   17  A    between atoms: _36  and  _37
REMARK   18  A    between atoms: _36  and  _39
REMARK   19  A    between atoms: _39  and  _40
REMARK   20  A    between atoms: _46  and  _48
REMARK   21  A    between atoms: _48  and  _49
REMARK   22  A    between atoms: _48  and  _51
REMARK   23  A    between atoms: _51  and  _52
REMARK   24  A    between atoms: _55  and  _57
REMARK   25  A    between atoms: _57  and  _58
REMARK   26  A    between atoms: _57  and  _60
REMARK   27  A    between atoms: _60  and  _61
REMARK   28  A    between atoms: _61  and  _63
REMARK   29  A    between atoms: _63  and  ZN_342
REMARK   30  A    between atoms: _64  and  _66
REMARK   31  A    between atoms: _66  and  _67
REMARK   32  A    between atoms: _66  and  _69
REMARK   33  A    between atoms: _69  and  _70
REMARK   34  A    between atoms: _72  and  _74
REMARK   35  A    between atoms: _74  and  _75
REMARK   36  A    between atoms: _74  and  _77
REMARK   37  A    between atoms: _77  and  _78
REMARK   38  A    between atoms: _78  and  _79
REMARK   39  A    between atoms: _82  and  _84
REMARK   40  A    between atoms: _84  and  _85
REMARK   41  A    between atoms: _84  and  _87
REMARK   42  A    between atoms: _87  and  _88
REMARK   43  A    between atoms: _88  and  _89
REMARK   44  A    between atoms: _89  and  _90
REMARK   45  A    between atoms: _90  and  ZN_342
REMARK   46  A    between atoms: _92  and  _94
REMARK   47  A    between atoms: _94  and  _95
REMARK   48  A    between atoms: _98  and  _100
REMARK   49  A    between atoms: _100  and  _101
REMARK   50  A    between atoms: _100  and  _103
REMARK   51  A    between atoms: _103  and  _104
REMARK   52  A    between atoms: _114  and  _116
REMARK   53  A    between atoms: _116  and  _117
REMARK   54  A    between atoms: _116  and  _119
REMARK   55  A    between atoms: _119  and  _120
REMARK   56  A    between atoms: _122  and  _124
REMARK   57  A    between atoms: _124  and  _125
REMARK   58  A    between atoms: _124  and  _127
REMARK   59  A    between atoms: _130  and  _132
REMARK   60  A    between atoms: _132  and  _133
REMARK   61  A    between atoms: _132  and  _135
REMARK   62  A    between atoms: _135  and  _136
REMARK   63  A    between atoms: _139  and  _141
REMARK   64  A    between atoms: _141  and  _142
REMARK   65  A    between atoms: _141  and  _144
REMARK   66  A    between atoms: _144  and  _145
REMARK   67  A    between atoms: _148  and  _150
REMARK   68  A    between atoms: _150  and  _151
REMARK   69  A    between atoms: _150  and  _153
REMARK   70  A    between atoms: _153  and  _154
REMARK   71  A    between atoms: _157  and  _159
REMARK   72  A    between atoms: _159  and  _160
REMARK   73  A    between atoms: _159  and  _162
REMARK   74  A    between atoms: _162  and  _163
REMARK   75  A    between atoms: _169  and  _171
REMARK   76  A    between atoms: _171  and  _172
REMARK   77  A    between atoms: _174  and  _176
REMARK   78  A    between atoms: _176  and  _177
REMARK   79  A    between atoms: _176  and  _179
REMARK   80  A    between atoms: _179  and  _180
REMARK   81  A    between atoms: _183  and  _185
REMARK   82  A    between atoms: _185  and  _186
REMARK   83  A    between atoms: _185  and  _188
REMARK   84  A    between atoms: _191  and  _193
REMARK   85  A    between atoms: _193  and  _194
REMARK   86  A    between atoms: _193  and  _196
REMARK   87  A    between atoms: _196  and  _197
REMARK   88  A    between atoms: _200  and  _202
REMARK   89  A    between atoms: _202  and  _203
REMARK   90  A    between atoms: _202  and  _205
REMARK   91  A    between atoms: _205  and  _206
REMARK   92  A    between atoms: _209  and  _211
REMARK   93  A    between atoms: _211  and  _212
REMARK   94  A    between atoms: _211  and  _214
REMARK   95  A    between atoms: _214  and  _215
REMARK   96  A    between atoms: _218  and  _220
REMARK   97  A    between atoms: _220  and  _221
REMARK   98  A    between atoms: _220  and  _223
REMARK   99  A    between atoms: _223  and  _224
REMARK  100  A    between atoms: _229  and  _231
REMARK  101  A    between atoms: _231  and  _232
REMARK  102  A    between atoms: _231  and  _234
REMARK  103  A    between atoms: _234  and  _235
REMARK  104  A    between atoms: _235  and  _236
REMARK  105  A    between atoms: _236  and  _237
REMARK  106  A    between atoms: _246  and  _248
REMARK  107  A    between atoms: _248  and  _249
REMARK  108  A    between atoms: _248  and  _251
REMARK  109  A    between atoms: _251  and  _252
REMARK  110  A    between atoms: _257  and  _259
REMARK  111  A    between atoms: _259  and  _260
REMARK  112  A    between atoms: _259  and  _262
REMARK  113  A    between atoms: _265  and  _267
REMARK  114  A    between atoms: _267  and  _268
REMARK  115  A    between atoms: _271  and  _273
REMARK  116  A    between atoms: _273  and  _274
REMARK  117  A    between atoms: _273  and  _276
REMARK  118  A    between atoms: _276  and  _277
REMARK  119  A    between atoms: _281  and  _282
REMARK  120  A    between atoms: _287  and  _289
REMARK  121  A    between atoms: _289  and  _290
REMARK  122  A    between atoms: _289  and  _292
REMARK  123  A    between atoms: _292  and  _293
REMARK  124  A    between atoms: _300  and  _301
REMARK  125  A    between atoms: _306  and  _308
REMARK  126  A    between atoms: _308  and  _309
REMARK  127  A    between atoms: _308  and  _311
REMARK  128  A    between atoms: _311  and  _312
REMARK  129  A    between atoms: _315  and  _317
REMARK  130  A    between atoms: _317  and  _318
REMARK  131  A    between atoms: _317  and  _320
REMARK  132  A    between atoms: _320  and  _321
REMARK  133  A    between atoms: _331  and  _333
REMARK  134  A    between atoms: _333  and  _334
REMARK  135  A    between atoms: _333  and  _336
REMARK  136  A    between atoms: _336  and  _337
REMARK  137  A    between atoms: _341  and  ZN_342
REMARK                            x       y       z     vdW  Elec       q    Type
REMARK                         _______ _______ _______ _____ _____    ______ ____
ROOT
ATOM      1  O   HOH     1     -54.681  14.039 -31.835  0.00  0.00    +0.000 OA
ENDROOT
TORSDOF 0
REMARK  Name = ../refined-set-2016/4f9u/4f9u_pocket.pdb
REMARK  137 active torsions:
REMARK  status: ('A' for Active; 'I' for Inactive)
REMARK    1  A    between atoms: _1  and  _3
REMARK    2  A    between atoms: _3  and  _4
REMARK    3  A    between atoms: _3  and  _6
REMARK    4  A    between atoms: _6  and  _7
REMARK    5  A    between atoms: _12  and  _14
REMARK    6  A    between atoms: _14  and  _15
REMARK    7  A    between atoms: _14  and  _17
REMARK    8  A    between atoms: _17  and  _18
REMARK    9  A    between atoms: _21  and  _23
REMARK   10  A    between atoms: _23  and  _24
REMARK   11  A    between atoms: _23  and  _26
REMARK   12  A    between atoms: _26  and  _27
REMARK   13  A    between atoms: _27  and  _28
REMARK   14  A    between atoms: _28  and  _29
REMARK   15  A    between atoms: _29  and  _30
REMARK   16  A    between atoms: _34  and  _36
REMARK   17  A    between atoms: _36  and  _37
REMARK   18  A    between atoms: _36  and  _39
REMARK   19  A    between atoms: _39  and  _40
REMARK   20  A    between atoms: _46  and  _48
REMARK   21  A    between atoms: _48  and  _49
REMARK   22  A    between atoms: _48  and  _51
REMARK   23  A    between atoms: _51  and  _52
REMARK   24  A    between atoms: _55  and  _57
REMARK   25  A    between atoms: _57  and  _58
REMARK   26  A    between atoms: _57  and  _60
REMARK   27  A    between atoms: _60  and  _61
REMARK   28  A    between atoms: _61  and  _63
REMARK   29  A    between atoms: _63  and  ZN_342
REMARK   30  A    between atoms: _64  and  _66
REMARK   31  A    between atoms: _66  and  _67
REMARK   32  A    between atoms: _66  and  _69
REMARK   33  A    between atoms: _69  and  _70
REMARK   34  A    between atoms: _72  and  _74
REMARK   35  A    between atoms: _74  and  _75
REMARK   36  A    between atoms: _74  and  _77
REMARK   37  A    between atoms: _77  and  _78
REMARK   38  A    between atoms: _78  and  _79
REMARK   39  A    between atoms: _82  and  _84
REMARK   40  A    between atoms: _84  and  _85
REMARK   41  A    between atoms: _84  and  _87
REMARK   42  A    between atoms: _87  and  _88
REMARK   43  A    between atoms: _88  and  _89
REMARK   44  A    between atoms: _89  and  _90
REMARK   45  A    between atoms: _90  and  ZN_342
REMARK   46  A    between atoms: _92  and  _94
REMARK   47  A    between atoms: _94  and  _95
REMARK   48  A    between atoms: _98  and  _100
REMARK   49  A    between atoms: _100  and  _101
REMARK   50  A    between atoms: _100  and  _103
REMARK   51  A    between atoms: _103  and  _104
REMARK   52  A    between atoms: _114  and  _116
REMARK   53  A    between atoms: _116  and  _117
REMARK   54  A    between atoms: _116  and  _119
REMARK   55  A    between atoms: _119  and  _120
REMARK   56  A    between atoms: _122  and  _124
REMARK   57  A    between atoms: _124  and  _125
REMARK   58  A    between atoms: _124  and  _127
REMARK   59  A    between atoms: _130  and  _132
REMARK   60  A    between atoms: _132  and  _133
REMARK   61  A    between atoms: _132  and  _135
REMARK   62  A    between atoms: _135  and  _136
REMARK   63  A    between atoms: _139  and  _141
REMARK   64  A    between atoms: _141  and  _142
REMARK   65  A    between atoms: _141  and  _144
REMARK   66  A    between atoms: _144  and  _145
REMARK   67  A    between atoms: _148  and  _150
REMARK   68  A    between atoms: _150  and  _151
REMARK   69  A    between atoms: _150  and  _153
REMARK   70  A    between atoms: _153  and  _154
REMARK   71  A    between atoms: _157  and  _159
REMARK   72  A    between atoms: _159  and  _160
REMARK   73  A    between atoms: _159  and  _162
REMARK   74  A    between atoms: _162  and  _163
REMARK   75  A    between atoms: _169  and  _171
REMARK   76  A    between atoms: _171  and  _172
REMARK   77  A    between atoms: _174  and  _176
REMARK   78  A    between atoms: _176  and  _177
REMARK   79  A    between atoms: _176  and  _179
REMARK   80  A    between atoms: _179  and  _180
REMARK   81  A    between atoms: _183  and  _185
REMARK   82  A    between atoms: _185  and  _186
REMARK   83  A    between atoms: _185  and  _188
REMARK   84  A    between atoms: _191  and  _193
REMARK   85  A    between atoms: _193  and  _194
REMARK   86  A    between atoms: _193  and  _196
REMARK   87  A    between atoms: _196  and  _197
REMARK   88  A    between atoms: _200  and  _202
REMARK   89  A    between atoms: _202  and  _203
REMARK   90  A    between atoms: _202  and  _205
REMARK   91  A    between atoms: _205  and  _206
REMARK   92  A    between atoms: _209  and  _211
REMARK   93  A    between atoms: _211  and  _212
REMARK   94  A    between atoms: _211  and  _214
REMARK   95  A    between atoms: _214  and  _215
REMARK   96  A    between atoms: _218  and  _220
REMARK   97  A    between atoms: _220  and  _221
REMARK   98  A    between atoms: _220  and  _223
REMARK   99  A    between atoms: _223  and  _224
REMARK  100  A    between atoms: _229  and  _231
REMARK  101  A    between atoms: _231  and  _232
REMARK  102  A    between atoms: _231  and  _234
REMARK  103  A    between atoms: _234  and  _235
REMARK  104  A    between atoms: _235  and  _236
REMARK  105  A    between atoms: _236  and  _237
REMARK  106  A    between atoms: _246  and  _248
REMARK  107  A    between atoms: _248  and  _249
REMARK  108  A    between atoms: _248  and  _251
REMARK  109  A    between atoms: _251  and  _252
REMARK  110  A    between atoms: _257  and  _259
REMARK  111  A    between atoms: _259  and  _260
REMARK  112  A    between atoms: _259  and  _262
REMARK  113  A    between atoms: _265  and  _267
REMARK  114  A    between atoms: _267  and  _268
REMARK  115  A    between atoms: _271  and  _273
REMARK  116  A    between atoms: _273  and  _274
REMARK  117  A    between atoms: _273  and  _276
REMARK  118  A    between atoms: _276  and  _277
REMARK  119  A    between atoms: _281  and  _282
REMARK  120  A    between atoms: _287  and  _289
REMARK  121  A    between atoms: _289  and  _290
REMARK  122  A    between atoms: _289  and  _292
REMARK  123  A    between atoms: _292  and  _293
REMARK  124  A    between atoms: _300  and  _301
REMARK  125  A    between atoms: _306  and  _308
REMARK  126  A    between atoms: _308  and  _309
REMARK  127  A    between atoms: _308  and  _311
REMARK  128  A    between atoms: _311  and  _312
REMARK  129  A    between atoms: _315  and  _317
REMARK  130  A    between atoms: _317  and  _318
REMARK  131  A    between atoms: _317  and  _320
REMARK  132  A    between atoms: _320  and  _321
REMARK  133  A    between atoms: _331  and  _333
REMARK  134  A    between atoms: _333  and  _334
REMARK  135  A    between atoms: _333  and  _336
REMARK  136  A    between atoms: _336  and  _337
REMARK  137  A    between atoms: _341  and  ZN_342
REMARK                            x       y       z     vdW  Elec       q    Type
REMARK                         _______ _______ _______ _____ _____    ______ ____
ROOT
ATOM      1  O   HOH     1     -54.858  23.873 -31.411  0.00  0.00    +0.000 OA
ENDROOT
TORSDOF 0
