REMARK  Name = ../refined-set-2016/3f7g/3f7g_pocket.pdb
REMARK  129 active torsions:
REMARK  status: ('A' for Active; 'I' for Inactive)
REMARK    1  A    between atoms: _1  and  _3
REMARK    2  A    between atoms: _3  and  _4
REMARK    3  A    between atoms: _3  and  _6
REMARK    4  A    between atoms: _9  and  _11
REMARK    5  A    between atoms: _11  and  _12
REMARK    6  A    between atoms: _11  and  _14
REMARK    7  A    between atoms: _14  and  _15
REMARK    8  A    between atoms: _18  and  _20
REMARK    9  A    between atoms: _20  and  _21
REMARK   10  A    between atoms: _20  and  _23
REMARK   11  A    between atoms: _23  and  _24
REMARK   12  A    between atoms: _30  and  _32
REMARK   13  A    between atoms: _32  and  _33
REMARK   14  A    between atoms: _32  and  _35
REMARK   15  A    between atoms: _35  and  _36
REMARK   16  A    between atoms: _42  and  _44
REMARK   17  A    between atoms: _44  and  _45
REMARK   18  A    between atoms: _44  and  _47
REMARK   19  A    between atoms: _47  and  _48
REMARK   20  A    between atoms: _51  and  _53
REMARK   21  A    between atoms: _53  and  _54
REMARK   22  A    between atoms: _53  and  _56
REMARK   23  A    between atoms: _56  and  _57
REMARK   24  A    between atoms: _62  and  _64
REMARK   25  A    between atoms: _64  and  _65
REMARK   26  A    between atoms: _64  and  _67
REMARK   27  A    between atoms: _67  and  _68
REMARK   28  A    between atoms: _68  and  _69
REMARK   29  A    between atoms: _74  and  _76
REMARK   30  A    between atoms: _76  and  _77
REMARK   31  A    between atoms: _76  and  _79
REMARK   32  A    between atoms: _79  and  _80
REMARK   33  A    between atoms: _83  and  _85
REMARK   34  A    between atoms: _85  and  _86
REMARK   35  A    between atoms: _85  and  _88
REMARK   36  A    between atoms: _88  and  _89
REMARK   37  A    between atoms: _89  and  _90
REMARK   38  A    between atoms: _90  and  _91
REMARK   39  A    between atoms: _91  and  _92
REMARK   40  A    between atoms: _96  and  _98
REMARK   41  A    between atoms: _98  and  _99
REMARK   42  A    between atoms: _98  and  _101
REMARK   43  A    between atoms: _104  and  _106
REMARK   44  A    between atoms: _106  and  _107
REMARK   45  A    between atoms: _106  and  _109
REMARK   46  A    between atoms: _109  and  _110
REMARK   47  A    between atoms: _110  and  _111
REMARK   48  A    between atoms: _111  and  _112
REMARK   49  A    between atoms: _121  and  _123
REMARK   50  A    between atoms: _123  and  _124
REMARK   51  A    between atoms: _123  and  _126
REMARK   52  A    between atoms: _128  and  _130
REMARK   53  A    between atoms: _130  and  _131
REMARK   54  A    between atoms: _130  and  _133
REMARK   55  A    between atoms: _133  and  _134
REMARK   56  A    between atoms: _139  and  _140
REMARK   57  A    between atoms: _142  and  _144
REMARK   58  A    between atoms: _144  and  _145
REMARK   59  A    between atoms: _147  and  _149
REMARK   60  A    between atoms: _149  and  _150
REMARK   61  A    between atoms: _152  and  _154
REMARK   62  A    between atoms: _154  and  _155
REMARK   63  A    between atoms: _154  and  _157
REMARK   64  A    between atoms: _157  and  _158
REMARK   65  A    between atoms: _161  and  _163
REMARK   66  A    between atoms: _163  and  _164
REMARK   67  A    between atoms: _163  and  _166
REMARK   68  A    between atoms: _166  and  _167
REMARK   69  A    between atoms: _167  and  _168
REMARK   70  A    between atoms: _173  and  _175
REMARK   71  A    between atoms: _175  and  _176
REMARK   72  A    between atoms: _175  and  _178
REMARK   73  A    between atoms: _178  and  _179
REMARK   74  A    between atoms: _181  and  _183
REMARK   75  A    between atoms: _183  and  _184
REMARK   76  A    between atoms: _183  and  _186
REMARK   77  A    between atoms: _186  and  _187
REMARK   78  A    between atoms: _197  and  _199
REMARK   79  A    between atoms: _199  and  _200
REMARK   80  A    between atoms: _199  and  _202
REMARK   81  A    between atoms: _202  and  _203
REMARK   82  A    between atoms: _203  and  _204
REMARK   83  A    between atoms: _204  and  _205
REMARK   84  A    between atoms: _205  and  _206
REMARK   85  A    between atoms: _210  and  _212
REMARK   86  A    between atoms: _212  and  _213
REMARK   87  A    between atoms: _212  and  _215
REMARK   88  A    between atoms: _215  and  _216
REMARK   89  A    between atoms: _216  and  _217
REMARK   90  A    between atoms: _217  and  _218
REMARK   91  A    between atoms: _227  and  _229
REMARK   92  A    between atoms: _229  and  _230
REMARK   93  A    between atoms: _232  and  _234
REMARK   94  A    between atoms: _234  and  _235
REMARK   95  A    between atoms: _234  and  _237
REMARK   96  A    between atoms: _237  and  _238
REMARK   97  A    between atoms: _241  and  _243
REMARK   98  A    between atoms: _243  and  _244
REMARK   99  A    between atoms: _243  and  _246
REMARK  100  A    between atoms: _246  and  _247
REMARK  101  A    between atoms: _251  and  _252
REMARK  102  A    between atoms: _257  and  _259
REMARK  103  A    between atoms: _259  and  _260
REMARK  104  A    between atoms: _259  and  _262
REMARK  105  A    between atoms: _262  and  _263
REMARK  106  A    between atoms: _263  and  _264
REMARK  107  A    between atoms: _267  and  _269
REMARK  108  A    between atoms: _269  and  _270
REMARK  109  A    between atoms: _269  and  _272
REMARK  110  A    between atoms: _272  and  _273
REMARK  111  A    between atoms: _278  and  _280
REMARK  112  A    between atoms: _280  and  _281
REMARK  113  A    between atoms: _280  and  _283
REMARK  114  A    between atoms: _283  and  _284
REMARK  115  A    between atoms: _284  and  _285
REMARK  116  A    between atoms: _285  and  _286
REMARK  117  A    between atoms: _286  and  _287
REMARK  118  A    between atoms: _291  and  _293
REMARK  119  A    between atoms: _293  and  _294
REMARK  120  A    between atoms: _293  and  _296
REMARK  121  A    between atoms: _296  and  _297
REMARK  122  A    between atoms: _307  and  _309
REMARK  123  A    between atoms: _309  and  _310
REMARK  124  A    between atoms: _309  and  _312
REMARK  125  A    between atoms: _312  and  _313
REMARK  126  A    between atoms: _319  and  _321
REMARK  127  A    between atoms: _321  and  _322
REMARK  128  A    between atoms: _321  and  _324
REMARK  129  A    between atoms: _324  and  _325
REMARK                            x       y       z     vdW  Elec       q    Type
REMARK                         _______ _______ _______ _____ _____    ______ ____
ROOT
ATOM      1  CA  VAL A   1      26.853  57.937  -7.971  0.00  0.00    +0.133 C 
ENDROOT
BRANCH   1   2
ATOM      2  CB  VAL A   1      26.074  56.852  -7.221  0.00  0.00    +0.023 C 
ATOM      3  CG2 VAL A   1      24.755  57.407  -6.707  0.00  0.00    +0.002 C 
ATOM      4  CG1 VAL A   1      25.828  55.652  -8.131  0.00  0.00    +0.002 C 
ENDBRANCH   1   2
BRANCH   1   5
ATOM      5  N   VAL A   1      28.141  57.458  -8.433  0.00  0.00    -0.239 NA
ATOM      6  H   VAL A   1      28.853  57.184  -7.726  0.00  0.00    +0.142 HD
ENDBRANCH   1   5
BRANCH   1   7
ATOM      7  C   VAL A   1      27.127  59.128  -7.053  0.00  0.00    +0.224 C 
ATOM      8  O   VAL A   1      27.950  59.014  -6.142  0.00  0.00    -0.287 OA
ENDBRANCH   1   7
TORSDOF 3
REMARK  Name = ../refined-set-2016/3f7g/3f7g_pocket.pdb
REMARK  129 active torsions:
REMARK  status: ('A' for Active; 'I' for Inactive)
REMARK    1  A    between atoms: _1  and  _3
REMARK    2  A    between atoms: _3  and  _4
REMARK    3  A    between atoms: _3  and  _6
REMARK    4  A    between atoms: _9  and  _11
REMARK    5  A    between atoms: _11  and  _12
REMARK    6  A    between atoms: _11  and  _14
REMARK    7  A    between atoms: _14  and  _15
REMARK    8  A    between atoms: _18  and  _20
REMARK    9  A    between atoms: _20  and  _21
REMARK   10  A    between atoms: _20  and  _23
REMARK   11  A    between atoms: _23  and  _24
REMARK   12  A    between atoms: _30  and  _32
REMARK   13  A    between atoms: _32  and  _33
REMARK   14  A    between atoms: _32  and  _35
REMARK   15  A    between atoms: _35  and  _36
REMARK   16  A    between atoms: _42  and  _44
REMARK   17  A    between atoms: _44  and  _45
REMARK   18  A    between atoms: _44  and  _47
REMARK   19  A    between atoms: _47  and  _48
REMARK   20  A    between atoms: _51  and  _53
REMARK   21  A    between atoms: _53  and  _54
REMARK   22  A    between atoms: _53  and  _56
REMARK   23  A    between atoms: _56  and  _57
REMARK   24  A    between atoms: _62  and  _64
REMARK   25  A    between atoms: _64  and  _65
REMARK   26  A    between atoms: _64  and  _67
REMARK   27  A    between atoms: _67  and  _68
REMARK   28  A    between atoms: _68  and  _69
REMARK   29  A    between atoms: _74  and  _76
REMARK   30  A    between atoms: _76  and  _77
REMARK   31  A    between atoms: _76  and  _79
REMARK   32  A    between atoms: _79  and  _80
REMARK   33  A    between atoms: _83  and  _85
REMARK   34  A    between atoms: _85  and  _86
REMARK   35  A    between atoms: _85  and  _88
REMARK   36  A    between atoms: _88  and  _89
REMARK   37  A    between atoms: _89  and  _90
REMARK   38  A    between atoms: _90  and  _91
REMARK   39  A    between atoms: _91  and  _92
REMARK   40  A    between atoms: _96  and  _98
REMARK   41  A    between atoms: _98  and  _99
REMARK   42  A    between atoms: _98  and  _101
REMARK   43  A    between atoms: _104  and  _106
REMARK   44  A    between atoms: _106  and  _107
REMARK   45  A    between atoms: _106  and  _109
REMARK   46  A    between atoms: _109  and  _110
REMARK   47  A    between atoms: _110  and  _111
REMARK   48  A    between atoms: _111  and  _112
REMARK   49  A    between atoms: _121  and  _123
REMARK   50  A    between atoms: _123  and  _124
REMARK   51  A    between atoms: _123  and  _126
REMARK   52  A    between atoms: _128  and  _130
REMARK   53  A    between atoms: _130  and  _131
REMARK   54  A    between atoms: _130  and  _133
REMARK   55  A    between atoms: _133  and  _134
REMARK   56  A    between atoms: _139  and  _140
REMARK   57  A    between atoms: _142  and  _144
REMARK   58  A    between atoms: _144  and  _145
REMARK   59  A    between atoms: _147  and  _149
REMARK   60  A    between atoms: _149  and  _150
REMARK   61  A    between atoms: _152  and  _154
REMARK   62  A    between atoms: _154  and  _155
REMARK   63  A    between atoms: _154  and  _157
REMARK   64  A    between atoms: _157  and  _158
REMARK   65  A    between atoms: _161  and  _163
REMARK   66  A    between atoms: _163  and  _164
REMARK   67  A    between atoms: _163  and  _166
REMARK   68  A    between atoms: _166  and  _167
REMARK   69  A    between atoms: _167  and  _168
REMARK   70  A    between atoms: _173  and  _175
REMARK   71  A    between atoms: _175  and  _176
REMARK   72  A    between atoms: _175  and  _178
REMARK   73  A    between atoms: _178  and  _179
REMARK   74  A    between atoms: _181  and  _183
REMARK   75  A    between atoms: _183  and  _184
REMARK   76  A    between atoms: _183  and  _186
REMARK   77  A    between atoms: _186  and  _187
REMARK   78  A    between atoms: _197  and  _199
REMARK   79  A    between atoms: _199  and  _200
REMARK   80  A    between atoms: _199  and  _202
REMARK   81  A    between atoms: _202  and  _203
REMARK   82  A    between atoms: _203  and  _204
REMARK   83  A    between atoms: _204  and  _205
REMARK   84  A    between atoms: _205  and  _206
REMARK   85  A    between atoms: _210  and  _212
REMARK   86  A    between atoms: _212  and  _213
REMARK   87  A    between atoms: _212  and  _215
REMARK   88  A    between atoms: _215  and  _216
REMARK   89  A    between atoms: _216  and  _217
REMARK   90  A    between atoms: _217  and  _218
REMARK   91  A    between atoms: _227  and  _229
REMARK   92  A    between atoms: _229  and  _230
REMARK   93  A    between atoms: _232  and  _234
REMARK   94  A    between atoms: _234  and  _235
REMARK   95  A    between atoms: _234  and  _237
REMARK   96  A    between atoms: _237  and  _238
REMARK   97  A    between atoms: _241  and  _243
REMARK   98  A    between atoms: _243  and  _244
REMARK   99  A    between atoms: _243  and  _246
REMARK  100  A    between atoms: _246  and  _247
REMARK  101  A    between atoms: _251  and  _252
REMARK  102  A    between atoms: _257  and  _259
REMARK  103  A    between atoms: _259  and  _260
REMARK  104  A    between atoms: _259  and  _262
REMARK  105  A    between atoms: _262  and  _263
REMARK  106  A    between atoms: _263  and  _264
REMARK  107  A    between atoms: _267  and  _269
REMARK  108  A    between atoms: _269  and  _270
REMARK  109  A    between atoms: _269  and  _272
REMARK  110  A    between atoms: _272  and  _273
REMARK  111  A    between atoms: _278  and  _280
REMARK  112  A    between atoms: _280  and  _281
REMARK  113  A    between atoms: _280  and  _283
REMARK  114  A    between atoms: _283  and  _284
REMARK  115  A    between atoms: _284  and  _285
REMARK  116  A    between atoms: _285  and  _286
REMARK  117  A    between atoms: _286  and  _287
REMARK  118  A    between atoms: _291  and  _293
REMARK  119  A    between atoms: _293  and  _294
REMARK  120  A    between atoms: _293  and  _296
REMARK  121  A    between atoms: _296  and  _297
REMARK  122  A    between atoms: _307  and  _309
REMARK  123  A    between atoms: _309  and  _310
REMARK  124  A    between atoms: _309  and  _312
REMARK  125  A    between atoms: _312  and  _313
REMARK  126  A    between atoms: _319  and  _321
REMARK  127  A    between atoms: _321  and  _322
REMARK  128  A    between atoms: _321  and  _324
REMARK  129  A    between atoms: _324  and  _325
REMARK                            x       y       z     vdW  Elec       q    Type
REMARK                         _______ _______ _______ _____ _____    ______ ____
ROOT
ATOM      1  CA  LEU A   1      22.825  59.445  -1.767  0.00  0.00    +0.133 C 
ENDROOT
BRANCH   1   2
ATOM      2  N   LEU A   1      22.843  60.516  -2.760  0.00  0.00    -0.239 NA
ATOM      3  H   LEU A   1      23.739  60.772  -3.222  0.00  0.00    +0.142 HD
ENDBRANCH   1   2
BRANCH   1   4
ATOM      4  C   LEU A   1      22.378  59.984  -0.404  0.00  0.00    +0.224 C 
ATOM      5  O   LEU A   1      21.506  59.403   0.260  0.00  0.00    -0.287 OA
ENDBRANCH   1   4
BRANCH   1   6
ATOM      6  CB  LEU A   1      24.196  58.766  -1.673  0.00  0.00    +0.025 C 
BRANCH   6   7
ATOM      7  CG  LEU A   1      24.536  57.846  -2.857  0.00  0.00    +0.002 C 
ATOM      8  CD2 LEU A   1      23.854  56.477  -2.720  0.00  0.00    +0.000 C 
ATOM      9  CD1 LEU A   1      26.036  57.685  -3.032  0.00  0.00    +0.000 C 
ENDBRANCH   6   7
ENDBRANCH   1   6
TORSDOF 4
REMARK  Name = ../refined-set-2016/3f7g/3f7g_pocket.pdb
REMARK  129 active torsions:
REMARK  status: ('A' for Active; 'I' for Inactive)
REMARK    1  A    between atoms: _1  and  _3
REMARK    2  A    between atoms: _3  and  _4
REMARK    3  A    between atoms: _3  and  _6
REMARK    4  A    between atoms: _9  and  _11
REMARK    5  A    between atoms: _11  and  _12
REMARK    6  A    between atoms: _11  and  _14
REMARK    7  A    between atoms: _14  and  _15
REMARK    8  A    between atoms: _18  and  _20
REMARK    9  A    between atoms: _20  and  _21
REMARK   10  A    between atoms: _20  and  _23
REMARK   11  A    between atoms: _23  and  _24
REMARK   12  A    between atoms: _30  and  _32
REMARK   13  A    between atoms: _32  and  _33
REMARK   14  A    between atoms: _32  and  _35
REMARK   15  A    between atoms: _35  and  _36
REMARK   16  A    between atoms: _42  and  _44
REMARK   17  A    between atoms: _44  and  _45
REMARK   18  A    between atoms: _44  and  _47
REMARK   19  A    between atoms: _47  and  _48
REMARK   20  A    between atoms: _51  and  _53
REMARK   21  A    between atoms: _53  and  _54
REMARK   22  A    between atoms: _53  and  _56
REMARK   23  A    between atoms: _56  and  _57
REMARK   24  A    between atoms: _62  and  _64
REMARK   25  A    between atoms: _64  and  _65
REMARK   26  A    between atoms: _64  and  _67
REMARK   27  A    between atoms: _67  and  _68
REMARK   28  A    between atoms: _68  and  _69
REMARK   29  A    between atoms: _74  and  _76
REMARK   30  A    between atoms: _76  and  _77
REMARK   31  A    between atoms: _76  and  _79
REMARK   32  A    between atoms: _79  and  _80
REMARK   33  A    between atoms: _83  and  _85
REMARK   34  A    between atoms: _85  and  _86
REMARK   35  A    between atoms: _85  and  _88
REMARK   36  A    between atoms: _88  and  _89
REMARK   37  A    between atoms: _89  and  _90
REMARK   38  A    between atoms: _90  and  _91
REMARK   39  A    between atoms: _91  and  _92
REMARK   40  A    between atoms: _96  and  _98
REMARK   41  A    between atoms: _98  and  _99
REMARK   42  A    between atoms: _98  and  _101
REMARK   43  A    between atoms: _104  and  _106
REMARK   44  A    between atoms: _106  and  _107
REMARK   45  A    between atoms: _106  and  _109
REMARK   46  A    between atoms: _109  and  _110
REMARK   47  A    between atoms: _110  and  _111
REMARK   48  A    between atoms: _111  and  _112
REMARK   49  A    between atoms: _121  and  _123
REMARK   50  A    between atoms: _123  and  _124
REMARK   51  A    between atoms: _123  and  _126
REMARK   52  A    between atoms: _128  and  _130
REMARK   53  A    between atoms: _130  and  _131
REMARK   54  A    between atoms: _130  and  _133
REMARK   55  A    between atoms: _133  and  _134
REMARK   56  A    between atoms: _139  and  _140
REMARK   57  A    between atoms: _142  and  _144
REMARK   58  A    between atoms: _144  and  _145
REMARK   59  A    between atoms: _147  and  _149
REMARK   60  A    between atoms: _149  and  _150
REMARK   61  A    between atoms: _152  and  _154
REMARK   62  A    between atoms: _154  and  _155
REMARK   63  A    between atoms: _154  and  _157
REMARK   64  A    between atoms: _157  and  _158
REMARK   65  A    between atoms: _161  and  _163
REMARK   66  A    between atoms: _163  and  _164
REMARK   67  A    between atoms: _163  and  _166
REMARK   68  A    between atoms: _166  and  _167
REMARK   69  A    between atoms: _167  and  _168
REMARK   70  A    between atoms: _173  and  _175
REMARK   71  A    between atoms: _175  and  _176
REMARK   72  A    between atoms: _175  and  _178
REMARK   73  A    between atoms: _178  and  _179
REMARK   74  A    between atoms: _181  and  _183
REMARK   75  A    between atoms: _183  and  _184
REMARK   76  A    between atoms: _183  and  _186
REMARK   77  A    between atoms: _186  and  _187
REMARK   78  A    between atoms: _197  and  _199
REMARK   79  A    between atoms: _199  and  _200
REMARK   80  A    between atoms: _199  and  _202
REMARK   81  A    between atoms: _202  and  _203
REMARK   82  A    between atoms: _203  and  _204
REMARK   83  A    between atoms: _204  and  _205
REMARK   84  A    between atoms: _205  and  _206
REMARK   85  A    between atoms: _210  and  _212
REMARK   86  A    between atoms: _212  and  _213
REMARK   87  A    between atoms: _212  and  _215
REMARK   88  A    between atoms: _215  and  _216
REMARK   89  A    between atoms: _216  and  _217
REMARK   90  A    between atoms: _217  and  _218
REMARK   91  A    between atoms: _227  and  _229
REMARK   92  A    between atoms: _229  and  _230
REMARK   93  A    between atoms: _232  and  _234
REMARK   94  A    between atoms: _234  and  _235
REMARK   95  A    between atoms: _234  and  _237
REMARK   96  A    between atoms: _237  and  _238
REMARK   97  A    between atoms: _241  and  _243
REMARK   98  A    between atoms: _243  and  _244
REMARK   99  A    between atoms: _243  and  _246
REMARK  100  A    between atoms: _246  and  _247
REMARK  101  A    between atoms: _251  and  _252
REMARK  102  A    between atoms: _257  and  _259
REMARK  103  A    between atoms: _259  and  _260
REMARK  104  A    between atoms: _259  and  _262
REMARK  105  A    between atoms: _262  and  _263
REMARK  106  A    between atoms: _263  and  _264
REMARK  107  A    between atoms: _267  and  _269
REMARK  108  A    between atoms: _269  and  _270
REMARK  109  A    between atoms: _269  and  _272
REMARK  110  A    between atoms: _272  and  _273
REMARK  111  A    between atoms: _278  and  _280
REMARK  112  A    between atoms: _280  and  _281
REMARK  113  A    between atoms: _280  and  _283
REMARK  114  A    between atoms: _283  and  _284
REMARK  115  A    between atoms: _284  and  _285
REMARK  116  A    between atoms: _285  and  _286
REMARK  117  A    between atoms: _286  and  _287
REMARK  118  A    between atoms: _291  and  _293
REMARK  119  A    between atoms: _293  and  _294
REMARK  120  A    between atoms: _293  and  _296
REMARK  121  A    between atoms: _296  and  _297
REMARK  122  A    between atoms: _307  and  _309
REMARK  123  A    between atoms: _309  and  _310
REMARK  124  A    between atoms: _309  and  _312
REMARK  125  A    between atoms: _312  and  _313
REMARK  126  A    between atoms: _319  and  _321
REMARK  127  A    between atoms: _321  and  _322
REMARK  128  A    between atoms: _321  and  _324
REMARK  129  A    between atoms: _324  and  _325
REMARK                            x       y       z     vdW  Elec       q    Type
REMARK                         _______ _______ _______ _____ _____    ______ ____
ROOT
ATOM      1  C   PHE A   1      23.256  57.903   3.514  0.00  0.00    +0.239 C 
ATOM      2  N   PHE A   2      23.980  57.201   4.381  0.00  0.00    -0.298 N 
ATOM      3  H   PHE A   2      23.578  56.333   4.789  0.00  0.00    +0.150 HD
ATOM      4  O   PHE A   1      23.537  59.054   3.170  0.00  0.00    -0.274 OA
ENDROOT
BRANCH   1   5
ATOM      5  CA  PHE A   1      22.014  57.198   2.970  0.00  0.00    +0.149 C 
BRANCH   5   6
ATOM      6  N   PHE A   1      20.869  58.083   2.828  0.00  0.00    -0.238 NA
ATOM      7  H   PHE A   1      20.784  58.671   1.974  0.00  0.00    +0.142 HD
ENDBRANCH   5   6
BRANCH   5   8
ATOM      8  CB  PHE A   1      22.343  56.539   1.627  0.00  0.00    +0.053 C 
BRANCH   8   9
ATOM      9  CG  PHE A   1      21.238  55.667   1.093  0.00  0.00    -0.020 A 
ATOM     10  CD2 PHE A   1      20.888  54.484   1.747  0.00  0.00    -0.004 A 
ATOM     11  CE2 PHE A   1      19.871  53.669   1.246  0.00  0.00    -0.000 A 
ATOM     12  CZ  PHE A   1      19.186  54.036   0.102  0.00  0.00    -0.000 A 
ATOM     13  CE1 PHE A   1      19.514  55.210  -0.552  0.00  0.00    -0.000 A 
ATOM     14  CD1 PHE A   1      20.544  56.022  -0.057  0.00  0.00    -0.004 A 
ENDBRANCH   8   9
ENDBRANCH   5   8
ENDBRANCH   1   5
BRANCH   2  15
ATOM     15  CA  PHE A   2      25.318  57.612   4.774  0.00  0.00    +0.141 C 
BRANCH  15  16
ATOM     16  C   PHE A   2      26.315  56.521   4.411  0.00  0.00    +0.227 C 
ATOM     17  O   PHE A   2      25.965  55.338   4.312  0.00  0.00    -0.286 OA
ENDBRANCH  15  16
BRANCH  15  18
ATOM     18  CB  PHE A   2      25.400  57.943   6.278  0.00  0.00    +0.054 C 
BRANCH  18  19
ATOM     19  CG  PHE A   2      25.096  56.777   7.191  0.00  0.00    -0.020 A 
ATOM     20  CD2 PHE A   2      26.105  55.956   7.646  0.00  0.00    -0.004 A 
ATOM     21  CE2 PHE A   2      25.826  54.882   8.498  0.00  0.00    -0.000 A 
ATOM     22  CZ  PHE A   2      24.535  54.644   8.903  0.00  0.00    -0.000 A 
ATOM     23  CE1 PHE A   2      23.514  55.468   8.463  0.00  0.00    -0.000 A 
ATOM     24  CD1 PHE A   2      23.795  56.530   7.617  0.00  0.00    -0.004 A 
ENDBRANCH  18  19
ENDBRANCH  15  18
ENDBRANCH   2  15
TORSDOF 8
REMARK  Name = ../refined-set-2016/3f7g/3f7g_pocket.pdb
REMARK  129 active torsions:
REMARK  status: ('A' for Active; 'I' for Inactive)
REMARK    1  A    between atoms: _1  and  _3
REMARK    2  A    between atoms: _3  and  _4
REMARK    3  A    between atoms: _3  and  _6
REMARK    4  A    between atoms: _9  and  _11
REMARK    5  A    between atoms: _11  and  _12
REMARK    6  A    between atoms: _11  and  _14
REMARK    7  A    between atoms: _14  and  _15
REMARK    8  A    between atoms: _18  and  _20
REMARK    9  A    between atoms: _20  and  _21
REMARK   10  A    between atoms: _20  and  _23
REMARK   11  A    between atoms: _23  and  _24
REMARK   12  A    between atoms: _30  and  _32
REMARK   13  A    between atoms: _32  and  _33
REMARK   14  A    between atoms: _32  and  _35
REMARK   15  A    between atoms: _35  and  _36
REMARK   16  A    between atoms: _42  and  _44
REMARK   17  A    between atoms: _44  and  _45
REMARK   18  A    between atoms: _44  and  _47
REMARK   19  A    between atoms: _47  and  _48
REMARK   20  A    between atoms: _51  and  _53
REMARK   21  A    between atoms: _53  and  _54
REMARK   22  A    between atoms: _53  and  _56
REMARK   23  A    between atoms: _56  and  _57
REMARK   24  A    between atoms: _62  and  _64
REMARK   25  A    between atoms: _64  and  _65
REMARK   26  A    between atoms: _64  and  _67
REMARK   27  A    between atoms: _67  and  _68
REMARK   28  A    between atoms: _68  and  _69
REMARK   29  A    between atoms: _74  and  _76
REMARK   30  A    between atoms: _76  and  _77
REMARK   31  A    between atoms: _76  and  _79
REMARK   32  A    between atoms: _79  and  _80
REMARK   33  A    between atoms: _83  and  _85
REMARK   34  A    between atoms: _85  and  _86
REMARK   35  A    between atoms: _85  and  _88
REMARK   36  A    between atoms: _88  and  _89
REMARK   37  A    between atoms: _89  and  _90
REMARK   38  A    between atoms: _90  and  _91
REMARK   39  A    between atoms: _91  and  _92
REMARK   40  A    between atoms: _96  and  _98
REMARK   41  A    between atoms: _98  and  _99
REMARK   42  A    between atoms: _98  and  _101
REMARK   43  A    between atoms: _104  and  _106
REMARK   44  A    between atoms: _106  and  _107
REMARK   45  A    between atoms: _106  and  _109
REMARK   46  A    between atoms: _109  and  _110
REMARK   47  A    between atoms: _110  and  _111
REMARK   48  A    between atoms: _111  and  _112
REMARK   49  A    between atoms: _121  and  _123
REMARK   50  A    between atoms: _123  and  _124
REMARK   51  A    between atoms: _123  and  _126
REMARK   52  A    between atoms: _128  and  _130
REMARK   53  A    between atoms: _130  and  _131
REMARK   54  A    between atoms: _130  and  _133
REMARK   55  A    between atoms: _133  and  _134
REMARK   56  A    between atoms: _139  and  _140
REMARK   57  A    between atoms: _142  and  _144
REMARK   58  A    between atoms: _144  and  _145
REMARK   59  A    between atoms: _147  and  _149
REMARK   60  A    between atoms: _149  and  _150
REMARK   61  A    between atoms: _152  and  _154
REMARK   62  A    between atoms: _154  and  _155
REMARK   63  A    between atoms: _154  and  _157
REMARK   64  A    between atoms: _157  and  _158
REMARK   65  A    between atoms: _161  and  _163
REMARK   66  A    between atoms: _163  and  _164
REMARK   67  A    between atoms: _163  and  _166
REMARK   68  A    between atoms: _166  and  _167
REMARK   69  A    between atoms: _167  and  _168
REMARK   70  A    between atoms: _173  and  _175
REMARK   71  A    between atoms: _175  and  _176
REMARK   72  A    between atoms: _175  and  _178
REMARK   73  A    between atoms: _178  and  _179
REMARK   74  A    between atoms: _181  and  _183
REMARK   75  A    between atoms: _183  and  _184
REMARK   76  A    between atoms: _183  and  _186
REMARK   77  A    between atoms: _186  and  _187
REMARK   78  A    between atoms: _197  and  _199
REMARK   79  A    between atoms: _199  and  _200
REMARK   80  A    between atoms: _199  and  _202
REMARK   81  A    between atoms: _202  and  _203
REMARK   82  A    between atoms: _203  and  _204
REMARK   83  A    between atoms: _204  and  _205
REMARK   84  A    between atoms: _205  and  _206
REMARK   85  A    between atoms: _210  and  _212
REMARK   86  A    between atoms: _212  and  _213
REMARK   87  A    between atoms: _212  and  _215
REMARK   88  A    between atoms: _215  and  _216
REMARK   89  A    between atoms: _216  and  _217
REMARK   90  A    between atoms: _217  and  _218
REMARK   91  A    between atoms: _227  and  _229
REMARK   92  A    between atoms: _229  and  _230
REMARK   93  A    between atoms: _232  and  _234
REMARK   94  A    between atoms: _234  and  _235
REMARK   95  A    between atoms: _234  and  _237
REMARK   96  A    between atoms: _237  and  _238
REMARK   97  A    between atoms: _241  and  _243
REMARK   98  A    between atoms: _243  and  _244
REMARK   99  A    between atoms: _243  and  _246
REMARK  100  A    between atoms: _246  and  _247
REMARK  101  A    between atoms: _251  and  _252
REMARK  102  A    between atoms: _257  and  _259
REMARK  103  A    between atoms: _259  and  _260
REMARK  104  A    between atoms: _259  and  _262
REMARK  105  A    between atoms: _262  and  _263
REMARK  106  A    between atoms: _263  and  _264
REMARK  107  A    between atoms: _267  and  _269
REMARK  108  A    between atoms: _269  and  _270
REMARK  109  A    between atoms: _269  and  _272
REMARK  110  A    between atoms: _272  and  _273
REMARK  111  A    between atoms: _278  and  _280
REMARK  112  A    between atoms: _280  and  _281
REMARK  113  A    between atoms: _280  and  _283
REMARK  114  A    between atoms: _283  and  _284
REMARK  115  A    between atoms: _284  and  _285
REMARK  116  A    between atoms: _285  and  _286
REMARK  117  A    between atoms: _286  and  _287
REMARK  118  A    between atoms: _291  and  _293
REMARK  119  A    between atoms: _293  and  _294
REMARK  120  A    between atoms: _293  and  _296
REMARK  121  A    between atoms: _296  and  _297
REMARK  122  A    between atoms: _307  and  _309
REMARK  123  A    between atoms: _309  and  _310
REMARK  124  A    between atoms: _309  and  _312
REMARK  125  A    between atoms: _312  and  _313
REMARK  126  A    between atoms: _319  and  _321
REMARK  127  A    between atoms: _321  and  _322
REMARK  128  A    between atoms: _321  and  _324
REMARK  129  A    between atoms: _324  and  _325
REMARK                            x       y       z     vdW  Elec       q    Type
REMARK                         _______ _______ _______ _____ _____    ______ ____
ROOT
ATOM      1  CA  THR A   1      29.825  53.255   6.319  0.00  0.00    +0.160 C 
ENDROOT
BRANCH   1   2
ATOM      2  N   THR A   1      29.255  54.008   5.194  0.00  0.00    -0.237 NA
ATOM      3  H   THR A   1      28.914  53.488   4.361  0.00  0.00    +0.142 HD
ENDBRANCH   1   2
BRANCH   1   4
ATOM      4  C   THR A   1      31.343  53.438   6.442  0.00  0.00    +0.227 C 
ATOM      5  O   THR A   1      31.926  53.207   7.503  0.00  0.00    -0.287 OA
ENDBRANCH   1   4
BRANCH   1   6
ATOM      6  CB  THR A   1      29.549  51.741   6.188  0.00  0.00    +0.134 C 
ATOM      7  CG2 THR A   1      28.037  51.473   6.012  0.00  0.00    +0.034 C 
BRANCH   6   8
ATOM      8  OG1 THR A   1      30.299  51.211   5.077  0.00  0.00    -0.383 OA
ATOM      9  HG1 THR A   1      30.023  51.671   4.245  0.00  0.00    +0.210 HD
ENDBRANCH   6   8
ENDBRANCH   1   6
TORSDOF 4
REMARK  Name = ../refined-set-2016/3f7g/3f7g_pocket.pdb
REMARK  129 active torsions:
REMARK  status: ('A' for Active; 'I' for Inactive)
REMARK    1  A    between atoms: _1  and  _3
REMARK    2  A    between atoms: _3  and  _4
REMARK    3  A    between atoms: _3  and  _6
REMARK    4  A    between atoms: _9  and  _11
REMARK    5  A    between atoms: _11  and  _12
REMARK    6  A    between atoms: _11  and  _14
REMARK    7  A    between atoms: _14  and  _15
REMARK    8  A    between atoms: _18  and  _20
REMARK    9  A    between atoms: _20  and  _21
REMARK   10  A    between atoms: _20  and  _23
REMARK   11  A    between atoms: _23  and  _24
REMARK   12  A    between atoms: _30  and  _32
REMARK   13  A    between atoms: _32  and  _33
REMARK   14  A    between atoms: _32  and  _35
REMARK   15  A    between atoms: _35  and  _36
REMARK   16  A    between atoms: _42  and  _44
REMARK   17  A    between atoms: _44  and  _45
REMARK   18  A    between atoms: _44  and  _47
REMARK   19  A    between atoms: _47  and  _48
REMARK   20  A    between atoms: _51  and  _53
REMARK   21  A    between atoms: _53  and  _54
REMARK   22  A    between atoms: _53  and  _56
REMARK   23  A    between atoms: _56  and  _57
REMARK   24  A    between atoms: _62  and  _64
REMARK   25  A    between atoms: _64  and  _65
REMARK   26  A    between atoms: _64  and  _67
REMARK   27  A    between atoms: _67  and  _68
REMARK   28  A    between atoms: _68  and  _69
REMARK   29  A    between atoms: _74  and  _76
REMARK   30  A    between atoms: _76  and  _77
REMARK   31  A    between atoms: _76  and  _79
REMARK   32  A    between atoms: _79  and  _80
REMARK   33  A    between atoms: _83  and  _85
REMARK   34  A    between atoms: _85  and  _86
REMARK   35  A    between atoms: _85  and  _88
REMARK   36  A    between atoms: _88  and  _89
REMARK   37  A    between atoms: _89  and  _90
REMARK   38  A    between atoms: _90  and  _91
REMARK   39  A    between atoms: _91  and  _92
REMARK   40  A    between atoms: _96  and  _98
REMARK   41  A    between atoms: _98  and  _99
REMARK   42  A    between atoms: _98  and  _101
REMARK   43  A    between atoms: _104  and  _106
REMARK   44  A    between atoms: _106  and  _107
REMARK   45  A    between atoms: _106  and  _109
REMARK   46  A    between atoms: _109  and  _110
REMARK   47  A    between atoms: _110  and  _111
REMARK   48  A    between atoms: _111  and  _112
REMARK   49  A    between atoms: _121  and  _123
REMARK   50  A    between atoms: _123  and  _124
REMARK   51  A    between atoms: _123  and  _126
REMARK   52  A    between atoms: _128  and  _130
REMARK   53  A    between atoms: _130  and  _131
REMARK   54  A    between atoms: _130  and  _133
REMARK   55  A    between atoms: _133  and  _134
REMARK   56  A    between atoms: _139  and  _140
REMARK   57  A    between atoms: _142  and  _144
REMARK   58  A    between atoms: _144  and  _145
REMARK   59  A    between atoms: _147  and  _149
REMARK   60  A    between atoms: _149  and  _150
REMARK   61  A    between atoms: _152  and  _154
REMARK   62  A    between atoms: _154  and  _155
REMARK   63  A    between atoms: _154  and  _157
REMARK   64  A    between atoms: _157  and  _158
REMARK   65  A    between atoms: _161  and  _163
REMARK   66  A    between atoms: _163  and  _164
REMARK   67  A    between atoms: _163  and  _166
REMARK   68  A    between atoms: _166  and  _167
REMARK   69  A    between atoms: _167  and  _168
REMARK   70  A    between atoms: _173  and  _175
REMARK   71  A    between atoms: _175  and  _176
REMARK   72  A    between atoms: _175  and  _178
REMARK   73  A    between atoms: _178  and  _179
REMARK   74  A    between atoms: _181  and  _183
REMARK   75  A    between atoms: _183  and  _184
REMARK   76  A    between atoms: _183  and  _186
REMARK   77  A    between atoms: _186  and  _187
REMARK   78  A    between atoms: _197  and  _199
REMARK   79  A    between atoms: _199  and  _200
REMARK   80  A    between atoms: _199  and  _202
REMARK   81  A    between atoms: _202  and  _203
REMARK   82  A    between atoms: _203  and  _204
REMARK   83  A    between atoms: _204  and  _205
REMARK   84  A    between atoms: _205  and  _206
REMARK   85  A    between atoms: _210  and  _212
REMARK   86  A    between atoms: _212  and  _213
REMARK   87  A    between atoms: _212  and  _215
REMARK   88  A    between atoms: _215  and  _216
REMARK   89  A    between atoms: _216  and  _217
REMARK   90  A    between atoms: _217  and  _218
REMARK   91  A    between atoms: _227  and  _229
REMARK   92  A    between atoms: _229  and  _230
REMARK   93  A    between atoms: _232  and  _234
REMARK   94  A    between atoms: _234  and  _235
REMARK   95  A    between atoms: _234  and  _237
REMARK   96  A    between atoms: _237  and  _238
REMARK   97  A    between atoms: _241  and  _243
REMARK   98  A    between atoms: _243  and  _244
REMARK   99  A    between atoms: _243  and  _246
REMARK  100  A    between atoms: _246  and  _247
REMARK  101  A    between atoms: _251  and  _252
REMARK  102  A    between atoms: _257  and  _259
REMARK  103  A    between atoms: _259  and  _260
REMARK  104  A    between atoms: _259  and  _262
REMARK  105  A    between atoms: _262  and  _263
REMARK  106  A    between atoms: _263  and  _264
REMARK  107  A    between atoms: _267  and  _269
REMARK  108  A    between atoms: _269  and  _270
REMARK  109  A    between atoms: _269  and  _272
REMARK  110  A    between atoms: _272  and  _273
REMARK  111  A    between atoms: _278  and  _280
REMARK  112  A    between atoms: _280  and  _281
REMARK  113  A    between atoms: _280  and  _283
REMARK  114  A    between atoms: _283  and  _284
REMARK  115  A    between atoms: _284  and  _285
REMARK  116  A    between atoms: _285  and  _286
REMARK  117  A    between atoms: _286  and  _287
REMARK  118  A    between atoms: _291  and  _293
REMARK  119  A    between atoms: _293  and  _294
REMARK  120  A    between atoms: _293  and  _296
REMARK  121  A    between atoms: _296  and  _297
REMARK  122  A    between atoms: _307  and  _309
REMARK  123  A    between atoms: _309  and  _310
REMARK  124  A    between atoms: _309  and  _312
REMARK  125  A    between atoms: _312  and  _313
REMARK  126  A    between atoms: _319  and  _321
REMARK  127  A    between atoms: _321  and  _322
REMARK  128  A    between atoms: _321  and  _324
REMARK  129  A    between atoms: _324  and  _325
REMARK                            x       y       z     vdW  Elec       q    Type
REMARK                         _______ _______ _______ _____ _____    ______ ____
ROOT
ATOM      1  CA  LYS A   4      28.584  50.420   1.315  0.00  0.00    +0.149 C 
ENDROOT
BRANCH   1   2
ATOM      2  C   LYS A   4      27.960  51.641   1.980  0.00  0.00    +0.241 C 
ATOM      3  O   LYS A   4      28.649  52.421   2.642  0.00  0.00    -0.273 OA
ATOM      4  N   VAL A   5      26.656  51.809   1.778  0.00  0.00    -0.297 N 
ATOM      5  H   VAL A   5      26.158  51.163   1.132  0.00  0.00    +0.150 HD
BRANCH   4   6
ATOM      6  CA  VAL A   5      25.905  52.870   2.434  0.00  0.00    +0.149 C 
BRANCH   6   7
ATOM      7  C   VAL A   5      24.736  52.286   3.210  0.00  0.00    +0.241 C 
ATOM      8  N   ARG A   6      24.175  53.097   4.089  0.00  0.00    -0.297 N 
ATOM      9  H   ARG A   6      24.529  54.069   4.192  0.00  0.00    +0.150 HD
ATOM     10  O   VAL A   5      24.355  51.129   3.028  0.00  0.00    -0.273 OA
BRANCH   8  11
ATOM     11  CA  ARG A   6      23.073  52.646   4.910  0.00  0.00    +0.149 C 
BRANCH  11  12
ATOM     12  C   ARG A   6      22.125  53.798   5.150  0.00  0.00    +0.241 C 
ATOM     13  O   ARG A   6      22.559  54.941   5.284  0.00  0.00    -0.273 OA
ATOM     14  N   CYS A   7      20.831  53.486   5.168  0.00  0.00    -0.297 N 
ATOM     15  H   CYS A   7      20.550  52.501   4.986  0.00  0.00    +0.150 HD
BRANCH  14  16
ATOM     16  CA  CYS A   7      19.797  54.473   5.433  0.00  0.00    +0.149 C 
BRANCH  16  17
ATOM     17  C   CYS A   7      19.667  54.674   6.931  0.00  0.00    +0.228 C 
ATOM     18  O   CYS A   7      19.586  53.703   7.688  0.00  0.00    -0.286 OA
ENDBRANCH  16  17
BRANCH  16  19
ATOM     19  CB  CYS A   7      18.446  54.032   4.856  0.00  0.00    +0.096 C 
ATOM     20  SG  CYS A   7      17.085  55.132   5.336  0.00  0.00    -0.080 S 
ENDBRANCH  16  19
ENDBRANCH  14  16
ENDBRANCH  11  12
BRANCH  11  21
ATOM     21  CB  ARG A   6      23.585  52.085   6.225  0.00  0.00    +0.033 C 
BRANCH  21  22
ATOM     22  CG  ARG A   6      22.557  51.297   6.974  0.00  0.00    +0.045 C 
BRANCH  22  23
ATOM     23  CD  ARG A   6      23.075  50.872   8.306  0.00  0.00    +0.174 C 
BRANCH  23  24
ATOM     24  NE  ARG A   6      24.181  49.920   8.237  0.00  0.00    -0.265 N 
ATOM     25  HE  ARG A   6      25.145  50.307   8.283  0.00  0.00    +0.259 HD
ATOM     26  CZ  ARG A   6      24.060  48.597   8.120  0.00  0.00    +0.342 C 
ATOM     27  NH2 ARG A   6      25.154  47.845   8.110  0.00  0.00    -0.292 N 
ATOM     28 HH21 ARG A   6      26.091  48.289   8.193  0.00  0.00    +0.255 HD
ATOM     29 HH22 ARG A   6      25.074  46.812   8.019  0.00  0.00    +0.255 HD
ATOM     30  NH1 ARG A   6      22.872  48.016   7.991  0.00  0.00    -0.292 N 
ATOM     31 HH11 ARG A   6      22.008  48.595   7.980  0.00  0.00    +0.255 HD
ATOM     32 HH12 ARG A   6      22.806  46.982   7.901  0.00  0.00    +0.255 HD
ENDBRANCH  23  24
ENDBRANCH  22  23
ENDBRANCH  21  22
ENDBRANCH  11  21
ENDBRANCH   8  11
ENDBRANCH   6   7
BRANCH   6  33
ATOM     33  CB  VAL A   5      25.359  53.914   1.442  0.00  0.00    +0.027 C 
ATOM     34  CG2 VAL A   5      24.199  53.318   0.614  0.00  0.00    +0.002 C 
ATOM     35  CG1 VAL A   5      26.485  54.461   0.555  0.00  0.00    +0.002 C 
ENDBRANCH   6  33
ENDBRANCH   4   6
ENDBRANCH   1   2
BRANCH   1  37
ATOM     36  C   ASP A   3      29.554  51.380  -0.693  0.00  0.00    +0.241 C 
ATOM     37  N   LYS A   4      29.722  50.818   0.498  0.00  0.00    -0.297 N 
ATOM     38  H   LYS A   4      30.686  50.659   0.855  0.00  0.00    +0.150 HD
ATOM     39  O   ASP A   3      28.444  51.630  -1.160  0.00  0.00    -0.273 OA
BRANCH  36  40
ATOM     40  CA  ASP A   3      30.828  51.742  -1.464  0.00  0.00    +0.160 C 
BRANCH  40  43
ATOM     41  C   GLN A   2      32.971  51.331  -0.369  0.00  0.00    +0.241 C 
ATOM     42  O   GLN A   2      33.079  52.505  -0.010  0.00  0.00    -0.273 OA
ATOM     43  N   ASP A   3      31.935  50.884  -1.074  0.00  0.00    -0.297 N 
ATOM     44  H   ASP A   3      31.916  49.883  -1.357  0.00  0.00    +0.150 HD
BRANCH  41  45
ATOM     45  CA  GLN A   2      34.059  50.321   0.006  0.00  0.00    +0.149 C 
BRANCH  45  48
ATOM     46  C   HIS A   1      33.445  50.441   2.387  0.00  0.00    +0.239 C 
ATOM     47  O   HIS A   1      32.235  50.378   2.162  0.00  0.00    -0.274 OA
ATOM     48  N   GLN A   2      34.372  50.436   1.431  0.00  0.00    -0.297 N 
ATOM     49  H   GLN A   2      35.370  50.518   1.712  0.00  0.00    +0.150 HD
BRANCH  46  50
ATOM     50  CA  HIS A   1      33.966  50.552   3.816  0.00  0.00    +0.151 C 
BRANCH  50  51
ATOM     51  N   HIS A   1      33.417  51.733   4.477  0.00  0.00    -0.238 NA
ATOM     52  H   HIS A   1      32.431  51.708   4.806  0.00  0.00    +0.142 HD
ENDBRANCH  50  51
BRANCH  50  53
ATOM     53  CB  HIS A   1      33.613  49.291   4.605  0.00  0.00    +0.074 C 
BRANCH  53  54
ATOM     54  CG  HIS A   1      34.199  49.265   5.984  0.00  0.00    +0.082 A 
ATOM     55  CD2 HIS A   1      33.849  48.567   7.090  0.00  0.00    +0.115 A 
ATOM     56  NE2 HIS A   1      34.739  48.906   8.081  0.00  0.00    -0.221 NA
ATOM     57  CE1 HIS A   1      35.603  49.783   7.602  0.00  0.00    +0.199 A 
ATOM     58  ND1 HIS A   1      35.306  50.010   6.335  0.00  0.00    -0.227 NA
ENDBRANCH  53  54
ENDBRANCH  50  53
ENDBRANCH  46  50
ENDBRANCH  45  48
BRANCH  45  59
ATOM     59  CB  GLN A   2      33.679  48.872  -0.361  0.00  0.00    +0.039 C 
BRANCH  59  60
ATOM     60  CG  GLN A   2      34.795  47.836  -0.152  0.00  0.00    +0.087 C 
BRANCH  60  61
ATOM     61  CD  GLN A   2      34.882  47.332   1.276  0.00  0.00    +0.219 C 
ATOM     62  OE1 GLN A   2      33.864  47.018   1.904  0.00  0.00    -0.275 OA
ATOM     63  NE2 GLN A   2      36.101  47.256   1.802  0.00  0.00    -0.329 N 
ATOM     64 HE21 GLN A   2      36.226  46.922   2.779  0.00  0.00    +0.145 HD
ATOM     65 HE22 GLN A   2      36.929  47.531   1.236  0.00  0.00    +0.145 HD
ENDBRANCH  60  61
ENDBRANCH  59  60
ENDBRANCH  45  59
ENDBRANCH  41  45
ENDBRANCH  40  43
BRANCH  40  66
ATOM     66  CB  ASP A   3      30.599  51.684  -2.988  0.00  0.00    +0.143 C 
BRANCH  66  67
ATOM     67  CG  ASP A   3      30.046  50.338  -3.474  0.00  0.00    +0.367 C 
ATOM     68  OD2 ASP A   3      30.046  49.341  -2.720  0.00  0.00    -0.246 OA
ATOM     69  OD1 ASP A   3      29.609  50.285  -4.642  0.00  0.00    -0.246 OA
ENDBRANCH  66  67
ENDBRANCH  40  66
ENDBRANCH  36  40
ENDBRANCH   1  37
BRANCH   1  70
ATOM     70  CB  LYS A   4      29.000  49.406   2.376  0.00  0.00    +0.029 C 
BRANCH  70  71
ATOM     71  CG  LYS A   4      29.726  48.185   1.829  0.00  0.00    +0.000 C 
BRANCH  71  72
ATOM     72  CD  LYS A   4      29.494  46.913   2.664  0.00  0.00    -0.024 C 
BRANCH  72  73
ATOM     73  CE  LYS A   4      29.657  47.112   4.170  0.00  0.00    -0.086 C 
BRANCH  73  74
ATOM     74  NZ  LYS A   4      29.381  45.854   4.949  0.00  0.00    +0.380 N 
ATOM     75  HZ1 LYS A   4      29.505  46.042   5.964  0.00  0.00    -0.089 HD
ATOM     76  HZ2 LYS A   4      28.405  45.544   4.770  0.00  0.00    -0.089 HD
ATOM     77  HZ3 LYS A   4      30.043  45.110   4.650  0.00  0.00    -0.089 HD
ENDBRANCH  73  74
ENDBRANCH  72  73
ENDBRANCH  71  72
ENDBRANCH  70  71
ENDBRANCH   1  70
TORSDOF 32
REMARK  Name = ../refined-set-2016/3f7g/3f7g_pocket.pdb
REMARK  129 active torsions:
REMARK  status: ('A' for Active; 'I' for Inactive)
REMARK    1  A    between atoms: _1  and  _3
REMARK    2  A    between atoms: _3  and  _4
REMARK    3  A    between atoms: _3  and  _6
REMARK    4  A    between atoms: _9  and  _11
REMARK    5  A    between atoms: _11  and  _12
REMARK    6  A    between atoms: _11  and  _14
REMARK    7  A    between atoms: _14  and  _15
REMARK    8  A    between atoms: _18  and  _20
REMARK    9  A    between atoms: _20  and  _21
REMARK   10  A    between atoms: _20  and  _23
REMARK   11  A    between atoms: _23  and  _24
REMARK   12  A    between atoms: _30  and  _32
REMARK   13  A    between atoms: _32  and  _33
REMARK   14  A    between atoms: _32  and  _35
REMARK   15  A    between atoms: _35  and  _36
REMARK   16  A    between atoms: _42  and  _44
REMARK   17  A    between atoms: _44  and  _45
REMARK   18  A    between atoms: _44  and  _47
REMARK   19  A    between atoms: _47  and  _48
REMARK   20  A    between atoms: _51  and  _53
REMARK   21  A    between atoms: _53  and  _54
REMARK   22  A    between atoms: _53  and  _56
REMARK   23  A    between atoms: _56  and  _57
REMARK   24  A    between atoms: _62  and  _64
REMARK   25  A    between atoms: _64  and  _65
REMARK   26  A    between atoms: _64  and  _67
REMARK   27  A    between atoms: _67  and  _68
REMARK   28  A    between atoms: _68  and  _69
REMARK   29  A    between atoms: _74  and  _76
REMARK   30  A    between atoms: _76  and  _77
REMARK   31  A    between atoms: _76  and  _79
REMARK   32  A    between atoms: _79  and  _80
REMARK   33  A    between atoms: _83  and  _85
REMARK   34  A    between atoms: _85  and  _86
REMARK   35  A    between atoms: _85  and  _88
REMARK   36  A    between atoms: _88  and  _89
REMARK   37  A    between atoms: _89  and  _90
REMARK   38  A    between atoms: _90  and  _91
REMARK   39  A    between atoms: _91  and  _92
REMARK   40  A    between atoms: _96  and  _98
REMARK   41  A    between atoms: _98  and  _99
REMARK   42  A    between atoms: _98  and  _101
REMARK   43  A    between atoms: _104  and  _106
REMARK   44  A    between atoms: _106  and  _107
REMARK   45  A    between atoms: _106  and  _109
REMARK   46  A    between atoms: _109  and  _110
REMARK   47  A    between atoms: _110  and  _111
REMARK   48  A    between atoms: _111  and  _112
REMARK   49  A    between atoms: _121  and  _123
REMARK   50  A    between atoms: _123  and  _124
REMARK   51  A    between atoms: _123  and  _126
REMARK   52  A    between atoms: _128  and  _130
REMARK   53  A    between atoms: _130  and  _131
REMARK   54  A    between atoms: _130  and  _133
REMARK   55  A    between atoms: _133  and  _134
REMARK   56  A    between atoms: _139  and  _140
REMARK   57  A    between atoms: _142  and  _144
REMARK   58  A    between atoms: _144  and  _145
REMARK   59  A    between atoms: _147  and  _149
REMARK   60  A    between atoms: _149  and  _150
REMARK   61  A    between atoms: _152  and  _154
REMARK   62  A    between atoms: _154  and  _155
REMARK   63  A    between atoms: _154  and  _157
REMARK   64  A    between atoms: _157  and  _158
REMARK   65  A    between atoms: _161  and  _163
REMARK   66  A    between atoms: _163  and  _164
REMARK   67  A    between atoms: _163  and  _166
REMARK   68  A    between atoms: _166  and  _167
REMARK   69  A    between atoms: _167  and  _168
REMARK   70  A    between atoms: _173  and  _175
REMARK   71  A    between atoms: _175  and  _176
REMARK   72  A    between atoms: _175  and  _178
REMARK   73  A    between atoms: _178  and  _179
REMARK   74  A    between atoms: _181  and  _183
REMARK   75  A    between atoms: _183  and  _184
REMARK   76  A    between atoms: _183  and  _186
REMARK   77  A    between atoms: _186  and  _187
REMARK   78  A    between atoms: _197  and  _199
REMARK   79  A    between atoms: _199  and  _200
REMARK   80  A    between atoms: _199  and  _202
REMARK   81  A    between atoms: _202  and  _203
REMARK   82  A    between atoms: _203  and  _204
REMARK   83  A    between atoms: _204  and  _205
REMARK   84  A    between atoms: _205  and  _206
REMARK   85  A    between atoms: _210  and  _212
REMARK   86  A    between atoms: _212  and  _213
REMARK   87  A    between atoms: _212  and  _215
REMARK   88  A    between atoms: _215  and  _216
REMARK   89  A    between atoms: _216  and  _217
REMARK   90  A    between atoms: _217  and  _218
REMARK   91  A    between atoms: _227  and  _229
REMARK   92  A    between atoms: _229  and  _230
REMARK   93  A    between atoms: _232  and  _234
REMARK   94  A    between atoms: _234  and  _235
REMARK   95  A    between atoms: _234  and  _237
REMARK   96  A    between atoms: _237  and  _238
REMARK   97  A    between atoms: _241  and  _243
REMARK   98  A    between atoms: _243  and  _244
REMARK   99  A    between atoms: _243  and  _246
REMARK  100  A    between atoms: _246  and  _247
REMARK  101  A    between atoms: _251  and  _252
REMARK  102  A    between atoms: _257  and  _259
REMARK  103  A    between atoms: _259  and  _260
REMARK  104  A    between atoms: _259  and  _262
REMARK  105  A    between atoms: _262  and  _263
REMARK  106  A    between atoms: _263  and  _264
REMARK  107  A    between atoms: _267  and  _269
REMARK  108  A    between atoms: _269  and  _270
REMARK  109  A    between atoms: _269  and  _272
REMARK  110  A    between atoms: _272  and  _273
REMARK  111  A    between atoms: _278  and  _280
REMARK  112  A    between atoms: _280  and  _281
REMARK  113  A    between atoms: _280  and  _283
REMARK  114  A    between atoms: _283  and  _284
REMARK  115  A    between atoms: _284  and  _285
REMARK  116  A    between atoms: _285  and  _286
REMARK  117  A    between atoms: _286  and  _287
REMARK  118  A    between atoms: _291  and  _293
REMARK  119  A    between atoms: _293  and  _294
REMARK  120  A    between atoms: _293  and  _296
REMARK  121  A    between atoms: _296  and  _297
REMARK  122  A    between atoms: _307  and  _309
REMARK  123  A    between atoms: _309  and  _310
REMARK  124  A    between atoms: _309  and  _312
REMARK  125  A    between atoms: _312  and  _313
REMARK  126  A    between atoms: _319  and  _321
REMARK  127  A    between atoms: _321  and  _322
REMARK  128  A    between atoms: _321  and  _324
REMARK  129  A    between atoms: _324  and  _325
REMARK                            x       y       z     vdW  Elec       q    Type
REMARK                         _______ _______ _______ _____ _____    ______ ____
ROOT
ATOM      1  CA  TRP A   7      26.660  51.251  -6.838  0.00  0.00    +0.153 C 
ENDROOT
BRANCH   1   3
ATOM      2  C   SER A   6      27.090  48.882  -6.485  0.00  0.00    +0.243 C 
ATOM      3  N   TRP A   7      27.281  50.146  -6.127  0.00  0.00    -0.297 N 
ATOM      4  H   TRP A   7      27.894  50.352  -5.312  0.00  0.00    +0.150 HD
ATOM      5  O   SER A   6      26.376  48.546  -7.435  0.00  0.00    -0.273 OA
BRANCH   2   6
ATOM      6  CA  SER A   6      27.842  47.847  -5.636  0.00  0.00    +0.178 C 
BRANCH   6   9
ATOM      7  C   GLN A   5      26.493  48.112  -3.587  0.00  0.00    +0.241 C 
ATOM      8  O   GLN A   5      25.437  47.913  -4.180  0.00  0.00    -0.273 OA
ATOM      9  N   SER A   6      27.679  48.097  -4.193  0.00  0.00    -0.295 N 
ATOM     10  H   SER A   6      28.530  48.270  -3.621  0.00  0.00    +0.150 HD
BRANCH   7  11
ATOM     11  CA  GLN A   5      26.496  48.367  -2.077  0.00  0.00    +0.149 C 
BRANCH  11  14
ATOM     12  C   LEU A   4      24.673  49.116  -0.608  0.00  0.00    +0.241 C 
ATOM     13  O   LEU A   4      25.373  49.981  -0.062  0.00  0.00    -0.273 OA
ATOM     14  N   GLN A   5      25.131  48.289  -1.545  0.00  0.00    -0.297 N 
ATOM     15  H   GLN A   5      24.494  47.556  -1.916  0.00  0.00    +0.150 HD
BRANCH  12  16
ATOM     16  CA  LEU A   4      23.203  48.938  -0.220  0.00  0.00    +0.149 C 
BRANCH  16  19
ATOM     17  C   GLY A   3      22.373  48.319   2.008  0.00  0.00    +0.243 C 
ATOM     18  O   GLY A   3      21.808  47.304   1.598  0.00  0.00    -0.273 OA
ATOM     19  N   LEU A   4      23.019  49.171   1.210  0.00  0.00    -0.297 N 
ATOM     20  H   LEU A   4      23.409  50.041   1.625  0.00  0.00    +0.150 HD
BRANCH  17  21
ATOM     21  CA  GLY A   3      22.376  48.659   3.489  0.00  0.00    +0.176 C 
BRANCH  21  24
ATOM     22  C   GLY A   2      20.288  49.539   4.413  0.00  0.00    +0.243 C 
ATOM     23  O   GLY A   2      20.629  50.705   4.222  0.00  0.00    -0.273 OA
ATOM     24  N   GLY A   3      21.065  48.506   4.116  0.00  0.00    -0.295 N 
ATOM     25  H   GLY A   3      20.727  47.548   4.338  0.00  0.00    +0.150 HD
BRANCH  22  26
ATOM     26  CA  GLY A   2      18.935  49.208   5.036  0.00  0.00    +0.176 C 
BRANCH  26  29
ATOM     27  C   TYR A   1      19.355  49.875   7.358  0.00  0.00    +0.239 C 
ATOM     28  O   TYR A   1      20.271  49.065   7.488  0.00  0.00    -0.274 OA
ATOM     29  N   GLY A   2      18.669  50.020   6.221  0.00  0.00    -0.296 N 
ATOM     30  H   GLY A   2      17.918  50.738   6.178  0.00  0.00    +0.150 HD
BRANCH  27  31
ATOM     31  CA  TYR A   1      19.010  50.835   8.509  0.00  0.00    +0.149 C 
BRANCH  31  32
ATOM     32  N   TYR A   1      17.756  51.565   8.317  0.00  0.00    -0.238 NA
ATOM     33  H   TYR A   1      17.792  52.601   8.228  0.00  0.00    +0.142 HD
ENDBRANCH  31  32
BRANCH  31  34
ATOM     34  CB  TYR A   1      19.038  50.110   9.863  0.00  0.00    +0.053 C 
BRANCH  34  35
ATOM     35  CG  TYR A   1      20.379  50.202  10.586  0.00  0.00    -0.020 A 
ATOM     36  CD2 TYR A   1      20.898  51.445  10.982  0.00  0.00    -0.001 A 
ATOM     37  CE2 TYR A   1      22.112  51.543  11.651  0.00  0.00    +0.036 A 
ATOM     38  CZ  TYR A   1      22.839  50.397  11.935  0.00  0.00    +0.134 A 
ATOM     39  CE1 TYR A   1      22.350  49.150  11.559  0.00  0.00    +0.036 A 
ATOM     40  CD1 TYR A   1      21.122  49.059  10.886  0.00  0.00    -0.001 A 
BRANCH  38  41
ATOM     41  OH  TYR A   1      24.048  50.506  12.596  0.00  0.00    -0.506 OA
ATOM     42  HH  TYR A   1      24.236  51.460  12.783  0.00  0.00    +0.292 HD
ENDBRANCH  38  41
ENDBRANCH  34  35
ENDBRANCH  31  34
ENDBRANCH  27  31
ENDBRANCH  26  29
ENDBRANCH  22  26
ENDBRANCH  21  24
ENDBRANCH  17  21
ENDBRANCH  16  19
BRANCH  16  43
ATOM     43  CB  LEU A   4      22.336  49.907  -1.038  0.00  0.00    +0.029 C 
BRANCH  43  44
ATOM     44  CG  LEU A   4      20.805  49.788  -0.927  0.00  0.00    +0.002 C 
ATOM     45  CD2 LEU A   4      20.290  48.446  -1.461  0.00  0.00    +0.000 C 
ATOM     46  CD1 LEU A   4      20.139  50.947  -1.646  0.00  0.00    +0.000 C 
ENDBRANCH  43  44
ENDBRANCH  16  43
ENDBRANCH  12  16
ENDBRANCH  11  14
BRANCH  11  47
ATOM     47  CB  GLN A   5      27.405  47.355  -1.361  0.00  0.00    +0.039 C 
BRANCH  47  48
ATOM     48  CG  GLN A   5      27.000  45.892  -1.552  0.00  0.00    +0.087 C 
BRANCH  48  49
ATOM     49  CD  GLN A   5      27.975  44.903  -0.931  0.00  0.00    +0.219 C 
ATOM     50  NE2 GLN A   5      28.956  45.407  -0.196  0.00  0.00    -0.329 N 
ATOM     51 HE21 GLN A   5      29.651  44.774   0.248  0.00  0.00    +0.145 HD
ATOM     52 HE22 GLN A   5      29.030  46.436  -0.063  0.00  0.00    +0.145 HD
ATOM     53  OE1 GLN A   5      27.844  43.696  -1.118  0.00  0.00    -0.275 OA
ENDBRANCH  48  49
ENDBRANCH  47  48
ENDBRANCH  11  47
ENDBRANCH   7  11
ENDBRANCH   6   9
BRANCH   6  54
ATOM     54  CB  SER A   6      27.412  46.423  -5.986  0.00  0.00    +0.166 C 
BRANCH  54  55
ATOM     55  OG  SER A   6      28.053  45.502  -5.124  0.00  0.00    -0.380 OA
ATOM     56  H   SER A   6      27.770  44.582  -5.356  0.00  0.00    +0.211 HD
ENDBRANCH  54  55
ENDBRANCH   6  54
ENDBRANCH   2   6
ENDBRANCH   1   3
BRANCH   1  57
ATOM     57  C   TRP A   7      27.271  51.389  -8.217  0.00  0.00    +0.241 C 
ATOM     58  O   TRP A   7      28.476  51.253  -8.377  0.00  0.00    -0.273 OA
ATOM     59  N   LYS A   8      26.420  51.641  -9.206  0.00  0.00    -0.297 N 
ATOM     60  H   LYS A   8      25.413  51.761  -8.976  0.00  0.00    +0.150 HD
BRANCH  59  61
ATOM     61  CA  LYS A   8      26.832  51.757 -10.594  0.00  0.00    +0.149 C 
BRANCH  61  62
ATOM     62  C   LYS A   8      26.255  53.021 -11.204  0.00  0.00    +0.241 C 
ATOM     63  O   LYS A   8      25.184  53.483 -10.808  0.00  0.00    -0.273 OA
ATOM     64  N   ARG A   9      26.984  53.581 -12.161  0.00  0.00    -0.297 N 
ATOM     65  H   ARG A   9      27.865  53.115 -12.458  0.00  0.00    +0.150 HD
BRANCH  64  66
ATOM     66  CA  ARG A   9      26.595  54.822 -12.809  0.00  0.00    +0.149 C 
BRANCH  66  67
ATOM     67  C   ARG A   9      25.166  54.712 -13.329  0.00  0.00    +0.241 C 
ATOM     68  N   GLY A  10      24.347  55.708 -13.009  0.00  0.00    -0.295 N 
ATOM     69  H   GLY A  10      24.707  56.500 -12.439  0.00  0.00    +0.150 HD
ATOM     70  O   ARG A   9      24.816  53.738 -14.000  0.00  0.00    -0.273 OA
BRANCH  68  71
ATOM     71  CA  GLY A  10      22.954  55.715 -13.439  0.00  0.00    +0.176 C 
BRANCH  71  72
ATOM     72  C   GLY A  10      21.995  55.214 -12.373  0.00  0.00    +0.243 C 
ATOM     73  N   ASP A  11      22.504  54.538 -11.342  0.00  0.00    -0.296 N 
ATOM     74  H   ASP A  11      23.514  54.292 -11.340  0.00  0.00    +0.150 HD
ATOM     75  O   GLY A  10      20.799  55.427 -12.490  0.00  0.00    -0.273 OA
BRANCH  73  76
ATOM     76  CA  ASP A  11      21.665  54.138 -10.216  0.00  0.00    +0.160 C 
BRANCH  76  77
ATOM     77  C   ASP A  11      21.085  55.409  -9.594  0.00  0.00    +0.241 C 
ATOM     78  O   ASP A  11      21.826  56.333  -9.275  0.00  0.00    -0.273 OA
ATOM     79  N   ASP A  12      19.765  55.456  -9.448  0.00  0.00    -0.297 N 
ATOM     80  H   ASP A  12      19.188  54.697  -9.863  0.00  0.00    +0.150 HD
BRANCH  79  81
ATOM     81  CA  ASP A  12      19.096  56.532  -8.727  0.00  0.00    +0.160 C 
BRANCH  81  82
ATOM     82  C   ASP A  12      18.867  56.078  -7.278  0.00  0.00    +0.244 C 
ATOM     83  N   PRO A  13      19.552  56.713  -6.297  0.00  0.00    -0.273 N 
ATOM     84  CA  PRO A  13      19.417  56.352  -4.879  0.00  0.00    +0.140 C 
ATOM     85  CB  PRO A  13      20.083  57.529  -4.159  0.00  0.00    +0.030 C 
ATOM     86  CG  PRO A  13      21.164  57.922  -5.081  0.00  0.00    +0.024 C 
ATOM     87  CD  PRO A  13      20.563  57.773  -6.471  0.00  0.00    +0.094 C 
ATOM     88  O   ASP A  12      18.092  55.149  -7.048  0.00  0.00    -0.273 OA
BRANCH  84  89
ATOM     89  C   PRO A  13      17.997  56.154  -4.372  0.00  0.00    +0.227 C 
ATOM     90  O   PRO A  13      17.722  55.157  -3.705  0.00  0.00    -0.286 OA
ENDBRANCH  84  89
ENDBRANCH  81  82
BRANCH  81  91
ATOM     91  CB  ASP A  12      17.760  56.858  -9.396  0.00  0.00    +0.143 C 
BRANCH  91  92
ATOM     92  CG  ASP A  12      17.018  57.982  -8.702  0.00  0.00    +0.367 C 
ATOM     93  OD2 ASP A  12      15.883  57.753  -8.224  0.00  0.00    -0.246 OA
ATOM     94  OD1 ASP A  12      17.579  59.095  -8.635  0.00  0.00    -0.246 OA
ENDBRANCH  91  92
ENDBRANCH  81  91
ENDBRANCH  79  81
ENDBRANCH  76  77
BRANCH  76  95
ATOM     95  CB  ASP A  11      22.467  53.382  -9.147  0.00  0.00    +0.143 C 
BRANCH  95  96
ATOM     96  CG  ASP A  11      22.829  51.945  -9.540  0.00  0.00    +0.367 C 
ATOM     97  OD2 ASP A  11      23.499  51.296  -8.707  0.00  0.00    -0.246 OA
ATOM     98  OD1 ASP A  11      22.487  51.453 -10.640  0.00  0.00    -0.246 OA
ENDBRANCH  95  96
ENDBRANCH  76  95
ENDBRANCH  73  76
ENDBRANCH  71  72
ENDBRANCH  68  71
ENDBRANCH  66  67
BRANCH  66  99
ATOM     99  CB  ARG A   9      27.547  55.136 -13.966  0.00  0.00    +0.033 C 
BRANCH  99 100
ATOM    100  CG  ARG A   9      27.341  56.502 -14.594  0.00  0.00    +0.045 C 
BRANCH 100 101
ATOM    101  CD  ARG A   9      28.168  56.651 -15.855  0.00  0.00    +0.174 C 
BRANCH 101 102
ATOM    102  NE  ARG A   9      27.922  57.937 -16.508  0.00  0.00    -0.265 N 
ATOM    103  CZ  ARG A   9      28.497  59.086 -16.162  0.00  0.00    +0.342 C 
ATOM    104  NH2 ARG A   9      29.368  59.133 -15.153  0.00  0.00    -0.292 N 
ATOM    105 HH21 ARG A   9      29.603  58.266 -14.628  0.00  0.00    +0.255 HD
ATOM    106 HH22 ARG A   9      29.812  60.036 -14.891  0.00  0.00    +0.255 HD
ATOM    107  NH1 ARG A   9      28.196  60.197 -16.825  0.00  0.00    -0.292 N 
ATOM    108 HH11 ARG A   9      28.642  61.098 -16.559  0.00  0.00    +0.255 HD
ATOM    109 HH12 ARG A   9      27.514  60.166 -17.610  0.00  0.00    +0.255 HD
ATOM    110  HE  ARG A   9      27.249  57.954 -17.300  0.00  0.00    +0.259 HD
ENDBRANCH 101 102
ENDBRANCH 100 101
ENDBRANCH  99 100
ENDBRANCH  66  99
ENDBRANCH  64  66
ENDBRANCH  61  62
BRANCH  61 111
ATOM    111  CB  LYS A   8      26.381  50.523 -11.370  0.00  0.00    +0.029 C 
BRANCH 111 112
ATOM    112  CG  LYS A   8      27.250  49.325 -11.066  0.00  0.00    +0.000 C 
BRANCH 112 113
ATOM    113  CD  LYS A   8      26.677  48.024 -11.583  0.00  0.00    -0.024 C 
BRANCH 113 114
ATOM    114  CE  LYS A   8      27.623  46.871 -11.253  0.00  0.00    -0.086 C 
BRANCH 114 115
ATOM    115  NZ  LYS A   8      27.090  45.549 -11.717  0.00  0.00    +0.380 N 
ATOM    116  HZ1 LYS A   8      26.178  45.362 -11.253  0.00  0.00    -0.089 HD
ATOM    117  HZ2 LYS A   8      27.766  44.798 -11.471  0.00  0.00    -0.089 HD
ATOM    118  HZ3 LYS A   8      26.957  45.573 -12.748  0.00  0.00    -0.089 HD
ENDBRANCH 114 115
ENDBRANCH 113 114
ENDBRANCH 112 113
ENDBRANCH 111 112
ENDBRANCH  61 111
ENDBRANCH  59  61
ENDBRANCH   1  57
BRANCH   1 119
ATOM    119  CB  TRP A   7      26.818  52.546  -6.049  0.00  0.00    +0.057 C 
BRANCH 119 120
ATOM    120  CG  TRP A   7      26.029  52.498  -4.797  0.00  0.00    -0.002 A 
ATOM    121  CD1 TRP A   7      26.430  52.003  -3.588  0.00  0.00    +0.068 A 
ATOM    122  NE1 TRP A   7      25.415  52.105  -2.680  0.00  0.00    -0.352 N 
ATOM    123  HE1 TRP A   7      25.463  51.808  -1.684  0.00  0.00    +0.166 HD
ATOM    124  CE2 TRP A   7      24.324  52.661  -3.293  0.00  0.00    +0.056 A 
ATOM    125  CZ2 TRP A   7      23.065  52.963  -2.783  0.00  0.00    +0.017 A 
ATOM    126  CH2 TRP A   7      22.154  53.524  -3.639  0.00  0.00    +0.001 A 
ATOM    127  CZ3 TRP A   7      22.476  53.789  -4.983  0.00  0.00    +0.000 A 
ATOM    128  CE3 TRP A   7      23.731  53.495  -5.484  0.00  0.00    +0.001 A 
ATOM    129  CD2 TRP A   7      24.679  52.925  -4.629  0.00  0.00    +0.013 A 
ENDBRANCH 119 120
ENDBRANCH   1 119
TORSDOF 50
REMARK  Name = ../refined-set-2016/3f7g/3f7g_pocket.pdb
REMARK  129 active torsions:
REMARK  status: ('A' for Active; 'I' for Inactive)
REMARK    1  A    between atoms: _1  and  _3
REMARK    2  A    between atoms: _3  and  _4
REMARK    3  A    between atoms: _3  and  _6
REMARK    4  A    between atoms: _9  and  _11
REMARK    5  A    between atoms: _11  and  _12
REMARK    6  A    between atoms: _11  and  _14
REMARK    7  A    between atoms: _14  and  _15
REMARK    8  A    between atoms: _18  and  _20
REMARK    9  A    between atoms: _20  and  _21
REMARK   10  A    between atoms: _20  and  _23
REMARK   11  A    between atoms: _23  and  _24
REMARK   12  A    between atoms: _30  and  _32
REMARK   13  A    between atoms: _32  and  _33
REMARK   14  A    between atoms: _32  and  _35
REMARK   15  A    between atoms: _35  and  _36
REMARK   16  A    between atoms: _42  and  _44
REMARK   17  A    between atoms: _44  and  _45
REMARK   18  A    between atoms: _44  and  _47
REMARK   19  A    between atoms: _47  and  _48
REMARK   20  A    between atoms: _51  and  _53
REMARK   21  A    between atoms: _53  and  _54
REMARK   22  A    between atoms: _53  and  _56
REMARK   23  A    between atoms: _56  and  _57
REMARK   24  A    between atoms: _62  and  _64
REMARK   25  A    between atoms: _64  and  _65
REMARK   26  A    between atoms: _64  and  _67
REMARK   27  A    between atoms: _67  and  _68
REMARK   28  A    between atoms: _68  and  _69
REMARK   29  A    between atoms: _74  and  _76
REMARK   30  A    between atoms: _76  and  _77
REMARK   31  A    between atoms: _76  and  _79
REMARK   32  A    between atoms: _79  and  _80
REMARK   33  A    between atoms: _83  and  _85
REMARK   34  A    between atoms: _85  and  _86
REMARK   35  A    between atoms: _85  and  _88
REMARK   36  A    between atoms: _88  and  _89
REMARK   37  A    between atoms: _89  and  _90
REMARK   38  A    between atoms: _90  and  _91
REMARK   39  A    between atoms: _91  and  _92
REMARK   40  A    between atoms: _96  and  _98
REMARK   41  A    between atoms: _98  and  _99
REMARK   42  A    between atoms: _98  and  _101
REMARK   43  A    between atoms: _104  and  _106
REMARK   44  A    between atoms: _106  and  _107
REMARK   45  A    between atoms: _106  and  _109
REMARK   46  A    between atoms: _109  and  _110
REMARK   47  A    between atoms: _110  and  _111
REMARK   48  A    between atoms: _111  and  _112
REMARK   49  A    between atoms: _121  and  _123
REMARK   50  A    between atoms: _123  and  _124
REMARK   51  A    between atoms: _123  and  _126
REMARK   52  A    between atoms: _128  and  _130
REMARK   53  A    between atoms: _130  and  _131
REMARK   54  A    between atoms: _130  and  _133
REMARK   55  A    between atoms: _133  and  _134
REMARK   56  A    between atoms: _139  and  _140
REMARK   57  A    between atoms: _142  and  _144
REMARK   58  A    between atoms: _144  and  _145
REMARK   59  A    between atoms: _147  and  _149
REMARK   60  A    between atoms: _149  and  _150
REMARK   61  A    between atoms: _152  and  _154
REMARK   62  A    between atoms: _154  and  _155
REMARK   63  A    between atoms: _154  and  _157
REMARK   64  A    between atoms: _157  and  _158
REMARK   65  A    between atoms: _161  and  _163
REMARK   66  A    between atoms: _163  and  _164
REMARK   67  A    between atoms: _163  and  _166
REMARK   68  A    between atoms: _166  and  _167
REMARK   69  A    between atoms: _167  and  _168
REMARK   70  A    between atoms: _173  and  _175
REMARK   71  A    between atoms: _175  and  _176
REMARK   72  A    between atoms: _175  and  _178
REMARK   73  A    between atoms: _178  and  _179
REMARK   74  A    between atoms: _181  and  _183
REMARK   75  A    between atoms: _183  and  _184
REMARK   76  A    between atoms: _183  and  _186
REMARK   77  A    between atoms: _186  and  _187
REMARK   78  A    between atoms: _197  and  _199
REMARK   79  A    between atoms: _199  and  _200
REMARK   80  A    between atoms: _199  and  _202
REMARK   81  A    between atoms: _202  and  _203
REMARK   82  A    between atoms: _203  and  _204
REMARK   83  A    between atoms: _204  and  _205
REMARK   84  A    between atoms: _205  and  _206
REMARK   85  A    between atoms: _210  and  _212
REMARK   86  A    between atoms: _212  and  _213
REMARK   87  A    between atoms: _212  and  _215
REMARK   88  A    between atoms: _215  and  _216
REMARK   89  A    between atoms: _216  and  _217
REMARK   90  A    between atoms: _217  and  _218
REMARK   91  A    between atoms: _227  and  _229
REMARK   92  A    between atoms: _229  and  _230
REMARK   93  A    between atoms: _232  and  _234
REMARK   94  A    between atoms: _234  and  _235
REMARK   95  A    between atoms: _234  and  _237
REMARK   96  A    between atoms: _237  and  _238
REMARK   97  A    between atoms: _241  and  _243
REMARK   98  A    between atoms: _243  and  _244
REMARK   99  A    between atoms: _243  and  _246
REMARK  100  A    between atoms: _246  and  _247
REMARK  101  A    between atoms: _251  and  _252
REMARK  102  A    between atoms: _257  and  _259
REMARK  103  A    between atoms: _259  and  _260
REMARK  104  A    between atoms: _259  and  _262
REMARK  105  A    between atoms: _262  and  _263
REMARK  106  A    between atoms: _263  and  _264
REMARK  107  A    between atoms: _267  and  _269
REMARK  108  A    between atoms: _269  and  _270
REMARK  109  A    between atoms: _269  and  _272
REMARK  110  A    between atoms: _272  and  _273
REMARK  111  A    between atoms: _278  and  _280
REMARK  112  A    between atoms: _280  and  _281
REMARK  113  A    between atoms: _280  and  _283
REMARK  114  A    between atoms: _283  and  _284
REMARK  115  A    between atoms: _284  and  _285
REMARK  116  A    between atoms: _285  and  _286
REMARK  117  A    between atoms: _286  and  _287
REMARK  118  A    between atoms: _291  and  _293
REMARK  119  A    between atoms: _293  and  _294
REMARK  120  A    between atoms: _293  and  _296
REMARK  121  A    between atoms: _296  and  _297
REMARK  122  A    between atoms: _307  and  _309
REMARK  123  A    between atoms: _309  and  _310
REMARK  124  A    between atoms: _309  and  _312
REMARK  125  A    between atoms: _312  and  _313
REMARK  126  A    between atoms: _319  and  _321
REMARK  127  A    between atoms: _321  and  _322
REMARK  128  A    between atoms: _321  and  _324
REMARK  129  A    between atoms: _324  and  _325
REMARK                            x       y       z     vdW  Elec       q    Type
REMARK                         _______ _______ _______ _____ _____    ______ ____
ROOT
ATOM      1  C   GLU A   1      16.625  51.606  -3.817  0.00  0.00    +0.238 C 
ATOM      2  N   HIS A   2      16.486  52.726  -3.120  0.00  0.00    -0.298 N 
ATOM      3  H   HIS A   2      16.869  53.614  -3.502  0.00  0.00    +0.150 HD
ATOM      4  O   GLU A   1      16.283  50.517  -3.389  0.00  0.00    -0.274 OA
ENDROOT
BRANCH   1   5
ATOM      5  CA  GLU A   1      17.217  51.740  -5.210  0.00  0.00    +0.145 C 
BRANCH   5   6
ATOM      6  N   GLU A   1      16.645  52.916  -5.887  0.00  0.00    -0.238 NA
ATOM      7  H   GLU A   1      17.259  53.716  -6.140  0.00  0.00    +0.142 HD
ENDBRANCH   5   6
BRANCH   5   8
ATOM      8  CB  GLU A   1      18.756  51.804  -5.130  0.00  0.00    +0.038 C 
BRANCH   8   9
ATOM      9  CG  GLU A   1      19.457  51.912  -6.479  0.00  0.00    +0.116 C 
BRANCH   9  10
ATOM     10  CD  GLU A   1      19.113  50.772  -7.418  0.00  0.00    +0.365 C 
ATOM     11  OE2 GLU A   1      19.465  49.621  -7.099  0.00  0.00    -0.246 OA
ATOM     12  OE1 GLU A   1      18.506  51.029  -8.483  0.00  0.00    -0.246 OA
ENDBRANCH   9  10
ENDBRANCH   8   9
ENDBRANCH   5   8
ENDBRANCH   1   5
BRANCH   2  13
ATOM     13  CA  HIS A   2      15.805  52.738  -1.826  0.00  0.00    +0.143 C 
BRANCH  13  14
ATOM     14  C   HIS A   2      14.421  52.066  -1.919  0.00  0.00    +0.227 C 
ATOM     15  O   HIS A   2      14.079  51.210  -1.097  0.00  0.00    -0.286 OA
ENDBRANCH  13  14
BRANCH  13  16
ATOM     16  CB  HIS A   2      15.648  54.175  -1.314  0.00  0.00    +0.075 C 
BRANCH  16  17
ATOM     17  CG  HIS A   2      15.661  54.292   0.179  0.00  0.00    +0.082 A 
ATOM     18  CD2 HIS A   2      15.247  53.440   1.149  0.00  0.00    +0.115 A 
ATOM     19  NE2 HIS A   2      15.503  54.046   2.357  0.00  0.00    -0.221 NA
ATOM     20  CE1 HIS A   2      16.054  55.226   2.134  0.00  0.00    +0.199 A 
ATOM     21  ND1 HIS A   2      16.167  55.395   0.829  0.00  0.00    -0.227 NA
ENDBRANCH  16  17
ENDBRANCH  13  16
ENDBRANCH   2  13
TORSDOF 9
REMARK  Name = ../refined-set-2016/3f7g/3f7g_pocket.pdb
REMARK  129 active torsions:
REMARK  status: ('A' for Active; 'I' for Inactive)
REMARK    1  A    between atoms: _1  and  _3
REMARK    2  A    between atoms: _3  and  _4
REMARK    3  A    between atoms: _3  and  _6
REMARK    4  A    between atoms: _9  and  _11
REMARK    5  A    between atoms: _11  and  _12
REMARK    6  A    between atoms: _11  and  _14
REMARK    7  A    between atoms: _14  and  _15
REMARK    8  A    between atoms: _18  and  _20
REMARK    9  A    between atoms: _20  and  _21
REMARK   10  A    between atoms: _20  and  _23
REMARK   11  A    between atoms: _23  and  _24
REMARK   12  A    between atoms: _30  and  _32
REMARK   13  A    between atoms: _32  and  _33
REMARK   14  A    between atoms: _32  and  _35
REMARK   15  A    between atoms: _35  and  _36
REMARK   16  A    between atoms: _42  and  _44
REMARK   17  A    between atoms: _44  and  _45
REMARK   18  A    between atoms: _44  and  _47
REMARK   19  A    between atoms: _47  and  _48
REMARK   20  A    between atoms: _51  and  _53
REMARK   21  A    between atoms: _53  and  _54
REMARK   22  A    between atoms: _53  and  _56
REMARK   23  A    between atoms: _56  and  _57
REMARK   24  A    between atoms: _62  and  _64
REMARK   25  A    between atoms: _64  and  _65
REMARK   26  A    between atoms: _64  and  _67
REMARK   27  A    between atoms: _67  and  _68
REMARK   28  A    between atoms: _68  and  _69
REMARK   29  A    between atoms: _74  and  _76
REMARK   30  A    between atoms: _76  and  _77
REMARK   31  A    between atoms: _76  and  _79
REMARK   32  A    between atoms: _79  and  _80
REMARK   33  A    between atoms: _83  and  _85
REMARK   34  A    between atoms: _85  and  _86
REMARK   35  A    between atoms: _85  and  _88
REMARK   36  A    between atoms: _88  and  _89
REMARK   37  A    between atoms: _89  and  _90
REMARK   38  A    between atoms: _90  and  _91
REMARK   39  A    between atoms: _91  and  _92
REMARK   40  A    between atoms: _96  and  _98
REMARK   41  A    between atoms: _98  and  _99
REMARK   42  A    between atoms: _98  and  _101
REMARK   43  A    between atoms: _104  and  _106
REMARK   44  A    between atoms: _106  and  _107
REMARK   45  A    between atoms: _106  and  _109
REMARK   46  A    between atoms: _109  and  _110
REMARK   47  A    between atoms: _110  and  _111
REMARK   48  A    between atoms: _111  and  _112
REMARK   49  A    between atoms: _121  and  _123
REMARK   50  A    between atoms: _123  and  _124
REMARK   51  A    between atoms: _123  and  _126
REMARK   52  A    between atoms: _128  and  _130
REMARK   53  A    between atoms: _130  and  _131
REMARK   54  A    between atoms: _130  and  _133
REMARK   55  A    between atoms: _133  and  _134
REMARK   56  A    between atoms: _139  and  _140
REMARK   57  A    between atoms: _142  and  _144
REMARK   58  A    between atoms: _144  and  _145
REMARK   59  A    between atoms: _147  and  _149
REMARK   60  A    between atoms: _149  and  _150
REMARK   61  A    between atoms: _152  and  _154
REMARK   62  A    between atoms: _154  and  _155
REMARK   63  A    between atoms: _154  and  _157
REMARK   64  A    between atoms: _157  and  _158
REMARK   65  A    between atoms: _161  and  _163
REMARK   66  A    between atoms: _163  and  _164
REMARK   67  A    between atoms: _163  and  _166
REMARK   68  A    between atoms: _166  and  _167
REMARK   69  A    between atoms: _167  and  _168
REMARK   70  A    between atoms: _173  and  _175
REMARK   71  A    between atoms: _175  and  _176
REMARK   72  A    between atoms: _175  and  _178
REMARK   73  A    between atoms: _178  and  _179
REMARK   74  A    between atoms: _181  and  _183
REMARK   75  A    between atoms: _183  and  _184
REMARK   76  A    between atoms: _183  and  _186
REMARK   77  A    between atoms: _186  and  _187
REMARK   78  A    between atoms: _197  and  _199
REMARK   79  A    between atoms: _199  and  _200
REMARK   80  A    between atoms: _199  and  _202
REMARK   81  A    between atoms: _202  and  _203
REMARK   82  A    between atoms: _203  and  _204
REMARK   83  A    between atoms: _204  and  _205
REMARK   84  A    between atoms: _205  and  _206
REMARK   85  A    between atoms: _210  and  _212
REMARK   86  A    between atoms: _212  and  _213
REMARK   87  A    between atoms: _212  and  _215
REMARK   88  A    between atoms: _215  and  _216
REMARK   89  A    between atoms: _216  and  _217
REMARK   90  A    between atoms: _217  and  _218
REMARK   91  A    between atoms: _227  and  _229
REMARK   92  A    between atoms: _229  and  _230
REMARK   93  A    between atoms: _232  and  _234
REMARK   94  A    between atoms: _234  and  _235
REMARK   95  A    between atoms: _234  and  _237
REMARK   96  A    between atoms: _237  and  _238
REMARK   97  A    between atoms: _241  and  _243
REMARK   98  A    between atoms: _243  and  _244
REMARK   99  A    between atoms: _243  and  _246
REMARK  100  A    between atoms: _246  and  _247
REMARK  101  A    between atoms: _251  and  _252
REMARK  102  A    between atoms: _257  and  _259
REMARK  103  A    between atoms: _259  and  _260
REMARK  104  A    between atoms: _259  and  _262
REMARK  105  A    between atoms: _262  and  _263
REMARK  106  A    between atoms: _263  and  _264
REMARK  107  A    between atoms: _267  and  _269
REMARK  108  A    between atoms: _269  and  _270
REMARK  109  A    between atoms: _269  and  _272
REMARK  110  A    between atoms: _272  and  _273
REMARK  111  A    between atoms: _278  and  _280
REMARK  112  A    between atoms: _280  and  _281
REMARK  113  A    between atoms: _280  and  _283
REMARK  114  A    between atoms: _283  and  _284
REMARK  115  A    between atoms: _284  and  _285
REMARK  116  A    between atoms: _285  and  _286
REMARK  117  A    between atoms: _286  and  _287
REMARK  118  A    between atoms: _291  and  _293
REMARK  119  A    between atoms: _293  and  _294
REMARK  120  A    between atoms: _293  and  _296
REMARK  121  A    between atoms: _296  and  _297
REMARK  122  A    between atoms: _307  and  _309
REMARK  123  A    between atoms: _309  and  _310
REMARK  124  A    between atoms: _309  and  _312
REMARK  125  A    between atoms: _312  and  _313
REMARK  126  A    between atoms: _319  and  _321
REMARK  127  A    between atoms: _321  and  _322
REMARK  128  A    between atoms: _321  and  _324
REMARK  129  A    between atoms: _324  and  _325
REMARK                            x       y       z     vdW  Elec       q    Type
REMARK                         _______ _______ _______ _____ _____    ______ ____
ROOT
ATOM      1  CA  TRP A   2      15.033  47.217  -1.807  0.00  0.00    +0.153 C 
ENDROOT
BRANCH   1   3
ATOM      2  C   LYS A   1      13.620  47.765  -3.699  0.00  0.00    +0.238 C 
ATOM      3  N   TRP A   2      14.502  48.150  -2.784  0.00  0.00    -0.297 N 
ATOM      4  H   TRP A   2      14.819  49.140  -2.767  0.00  0.00    +0.150 HD
ATOM      5  O   LYS A   1      13.018  46.698  -3.647  0.00  0.00    -0.274 OA
BRANCH   2   6
ATOM      6  CA  LYS A   1      13.413  48.717  -4.864  0.00  0.00    +0.145 C 
BRANCH   6   7
ATOM      7  N   LYS A   1      13.288  50.106  -4.396  0.00  0.00    -0.238 NA
ATOM      8  H   LYS A   1      14.003  50.805  -4.682  0.00  0.00    +0.142 HD
ENDBRANCH   6   7
BRANCH   6   9
ATOM      9  CB  LYS A   1      14.612  48.526  -5.803  0.00  0.00    +0.026 C 
BRANCH   9  10
ATOM     10  CG  LYS A   1      14.427  48.924  -7.249  0.00  0.00    -0.000 C 
BRANCH  10  11
ATOM     11  CD  LYS A   1      15.667  48.524  -8.051  0.00  0.00    -0.024 C 
BRANCH  11  12
ATOM     12  CE  LYS A   1      15.701  49.177  -9.430  0.00  0.00    -0.086 C 
BRANCH  12  13
ATOM     13  NZ  LYS A   1      17.028  49.011 -10.106  0.00  0.00    +0.380 N 
ATOM     14  HZ1 LYS A   1      17.770  49.449  -9.523  0.00  0.00    -0.089 HD
ATOM     15  HZ2 LYS A   1      17.231  47.998 -10.224  0.00  0.00    -0.089 HD
ATOM     16  HZ3 LYS A   1      17.001  49.471 -11.038  0.00  0.00    -0.089 HD
ENDBRANCH  12  13
ENDBRANCH  11  12
ENDBRANCH  10  11
ENDBRANCH   9  10
ENDBRANCH   6   9
ENDBRANCH   2   6
ENDBRANCH   1   3
BRANCH   1  17
ATOM     17  C   TRP A   2      14.407  47.335  -0.422  0.00  0.00    +0.241 C 
ATOM     18  O   TRP A   2      14.304  46.334   0.297  0.00  0.00    -0.273 OA
ATOM     19  N   PHE A   3      13.983  48.544  -0.060  0.00  0.00    -0.298 N 
ATOM     20  H   PHE A   3      14.075  49.330  -0.734  0.00  0.00    +0.150 HD
BRANCH  19  21
ATOM     21  CA  PHE A   3      13.391  48.806   1.257  0.00  0.00    +0.141 C 
BRANCH  21  22
ATOM     22  C   PHE A   3      12.109  49.623   1.109  0.00  0.00    +0.227 C 
ATOM     23  O   PHE A   3      12.009  50.718   1.649  0.00  0.00    -0.286 OA
ENDBRANCH  21  22
BRANCH  21  24
ATOM     24  CB  PHE A   3      14.420  49.533   2.148  0.00  0.00    +0.054 C 
BRANCH  24  25
ATOM     25  CG  PHE A   3      15.804  48.918   2.098  0.00  0.00    -0.020 A 
ATOM     26  CD2 PHE A   3      16.014  47.613   2.515  0.00  0.00    -0.004 A 
ATOM     27  CE2 PHE A   3      17.285  47.029   2.445  0.00  0.00    -0.000 A 
ATOM     28  CZ  PHE A   3      18.345  47.751   1.950  0.00  0.00    -0.000 A 
ATOM     29  CE1 PHE A   3      18.149  49.047   1.524  0.00  0.00    -0.000 A 
ATOM     30  CD1 PHE A   3      16.881  49.627   1.595  0.00  0.00    -0.004 A 
ENDBRANCH  24  25
ENDBRANCH  21  24
ENDBRANCH  19  21
ENDBRANCH   1  17
BRANCH   1  31
ATOM     31  CB  TRP A   2      16.554  47.362  -1.736  0.00  0.00    +0.057 C 
BRANCH  31  32
ATOM     32  CG  TRP A   2      17.220  47.028  -3.032  0.00  0.00    -0.002 A 
ATOM     33  CD2 TRP A   2      17.244  45.755  -3.680  0.00  0.00    +0.013 A 
ATOM     34  CE3 TRP A   2      16.733  44.489  -3.359  0.00  0.00    +0.001 A 
ATOM     35  CZ3 TRP A   2      16.960  43.431  -4.239  0.00  0.00    +0.000 A 
ATOM     36  CH2 TRP A   2      17.685  43.621  -5.431  0.00  0.00    +0.001 A 
ATOM     37  CZ2 TRP A   2      18.202  44.849  -5.764  0.00  0.00    +0.017 A 
ATOM     38  CE2 TRP A   2      17.974  45.911  -4.878  0.00  0.00    +0.056 A 
ATOM     39  NE1 TRP A   2      18.362  47.221  -4.952  0.00  0.00    -0.352 N 
ATOM     40  HE1 TRP A   2      18.918  47.645  -5.722  0.00  0.00    +0.166 HD
ATOM     41  CD1 TRP A   2      17.899  47.884  -3.845  0.00  0.00    +0.068 A 
ENDBRANCH  31  32
ENDBRANCH   1  31
TORSDOF 15
REMARK  Name = ../refined-set-2016/3f7g/3f7g_pocket.pdb
REMARK  129 active torsions:
REMARK  status: ('A' for Active; 'I' for Inactive)
REMARK    1  A    between atoms: _1  and  _3
REMARK    2  A    between atoms: _3  and  _4
REMARK    3  A    between atoms: _3  and  _6
REMARK    4  A    between atoms: _9  and  _11
REMARK    5  A    between atoms: _11  and  _12
REMARK    6  A    between atoms: _11  and  _14
REMARK    7  A    between atoms: _14  and  _15
REMARK    8  A    between atoms: _18  and  _20
REMARK    9  A    between atoms: _20  and  _21
REMARK   10  A    between atoms: _20  and  _23
REMARK   11  A    between atoms: _23  and  _24
REMARK   12  A    between atoms: _30  and  _32
REMARK   13  A    between atoms: _32  and  _33
REMARK   14  A    between atoms: _32  and  _35
REMARK   15  A    between atoms: _35  and  _36
REMARK   16  A    between atoms: _42  and  _44
REMARK   17  A    between atoms: _44  and  _45
REMARK   18  A    between atoms: _44  and  _47
REMARK   19  A    between atoms: _47  and  _48
REMARK   20  A    between atoms: _51  and  _53
REMARK   21  A    between atoms: _53  and  _54
REMARK   22  A    between atoms: _53  and  _56
REMARK   23  A    between atoms: _56  and  _57
REMARK   24  A    between atoms: _62  and  _64
REMARK   25  A    between atoms: _64  and  _65
REMARK   26  A    between atoms: _64  and  _67
REMARK   27  A    between atoms: _67  and  _68
REMARK   28  A    between atoms: _68  and  _69
REMARK   29  A    between atoms: _74  and  _76
REMARK   30  A    between atoms: _76  and  _77
REMARK   31  A    between atoms: _76  and  _79
REMARK   32  A    between atoms: _79  and  _80
REMARK   33  A    between atoms: _83  and  _85
REMARK   34  A    between atoms: _85  and  _86
REMARK   35  A    between atoms: _85  and  _88
REMARK   36  A    between atoms: _88  and  _89
REMARK   37  A    between atoms: _89  and  _90
REMARK   38  A    between atoms: _90  and  _91
REMARK   39  A    between atoms: _91  and  _92
REMARK   40  A    between atoms: _96  and  _98
REMARK   41  A    between atoms: _98  and  _99
REMARK   42  A    between atoms: _98  and  _101
REMARK   43  A    between atoms: _104  and  _106
REMARK   44  A    between atoms: _106  and  _107
REMARK   45  A    between atoms: _106  and  _109
REMARK   46  A    between atoms: _109  and  _110
REMARK   47  A    between atoms: _110  and  _111
REMARK   48  A    between atoms: _111  and  _112
REMARK   49  A    between atoms: _121  and  _123
REMARK   50  A    between atoms: _123  and  _124
REMARK   51  A    between atoms: _123  and  _126
REMARK   52  A    between atoms: _128  and  _130
REMARK   53  A    between atoms: _130  and  _131
REMARK   54  A    between atoms: _130  and  _133
REMARK   55  A    between atoms: _133  and  _134
REMARK   56  A    between atoms: _139  and  _140
REMARK   57  A    between atoms: _142  and  _144
REMARK   58  A    between atoms: _144  and  _145
REMARK   59  A    between atoms: _147  and  _149
REMARK   60  A    between atoms: _149  and  _150
REMARK   61  A    between atoms: _152  and  _154
REMARK   62  A    between atoms: _154  and  _155
REMARK   63  A    between atoms: _154  and  _157
REMARK   64  A    between atoms: _157  and  _158
REMARK   65  A    between atoms: _161  and  _163
REMARK   66  A    between atoms: _163  and  _164
REMARK   67  A    between atoms: _163  and  _166
REMARK   68  A    between atoms: _166  and  _167
REMARK   69  A    between atoms: _167  and  _168
REMARK   70  A    between atoms: _173  and  _175
REMARK   71  A    between atoms: _175  and  _176
REMARK   72  A    between atoms: _175  and  _178
REMARK   73  A    between atoms: _178  and  _179
REMARK   74  A    between atoms: _181  and  _183
REMARK   75  A    between atoms: _183  and  _184
REMARK   76  A    between atoms: _183  and  _186
REMARK   77  A    between atoms: _186  and  _187
REMARK   78  A    between atoms: _197  and  _199
REMARK   79  A    between atoms: _199  and  _200
REMARK   80  A    between atoms: _199  and  _202
REMARK   81  A    between atoms: _202  and  _203
REMARK   82  A    between atoms: _203  and  _204
REMARK   83  A    between atoms: _204  and  _205
REMARK   84  A    between atoms: _205  and  _206
REMARK   85  A    between atoms: _210  and  _212
REMARK   86  A    between atoms: _212  and  _213
REMARK   87  A    between atoms: _212  and  _215
REMARK   88  A    between atoms: _215  and  _216
REMARK   89  A    between atoms: _216  and  _217
REMARK   90  A    between atoms: _217  and  _218
REMARK   91  A    between atoms: _227  and  _229
REMARK   92  A    between atoms: _229  and  _230
REMARK   93  A    between atoms: _232  and  _234
REMARK   94  A    between atoms: _234  and  _235
REMARK   95  A    between atoms: _234  and  _237
REMARK   96  A    between atoms: _237  and  _238
REMARK   97  A    between atoms: _241  and  _243
REMARK   98  A    between atoms: _243  and  _244
REMARK   99  A    between atoms: _243  and  _246
REMARK  100  A    between atoms: _246  and  _247
REMARK  101  A    between atoms: _251  and  _252
REMARK  102  A    between atoms: _257  and  _259
REMARK  103  A    between atoms: _259  and  _260
REMARK  104  A    between atoms: _259  and  _262
REMARK  105  A    between atoms: _262  and  _263
REMARK  106  A    between atoms: _263  and  _264
REMARK  107  A    between atoms: _267  and  _269
REMARK  108  A    between atoms: _269  and  _270
REMARK  109  A    between atoms: _269  and  _272
REMARK  110  A    between atoms: _272  and  _273
REMARK  111  A    between atoms: _278  and  _280
REMARK  112  A    between atoms: _280  and  _281
REMARK  113  A    between atoms: _280  and  _283
REMARK  114  A    between atoms: _283  and  _284
REMARK  115  A    between atoms: _284  and  _285
REMARK  116  A    between atoms: _285  and  _286
REMARK  117  A    between atoms: _286  and  _287
REMARK  118  A    between atoms: _291  and  _293
REMARK  119  A    between atoms: _293  and  _294
REMARK  120  A    between atoms: _293  and  _296
REMARK  121  A    between atoms: _296  and  _297
REMARK  122  A    between atoms: _307  and  _309
REMARK  123  A    between atoms: _309  and  _310
REMARK  124  A    between atoms: _309  and  _312
REMARK  125  A    between atoms: _312  and  _313
REMARK  126  A    between atoms: _319  and  _321
REMARK  127  A    between atoms: _321  and  _322
REMARK  128  A    between atoms: _321  and  _324
REMARK  129  A    between atoms: _324  and  _325
REMARK                            x       y       z     vdW  Elec       q    Type
REMARK                         _______ _______ _______ _____ _____    ______ ____
ROOT
ATOM      1  CA  SER A   1      12.682  45.211  -7.552  0.00  0.00    +0.163 C 
ENDROOT
BRANCH   1   2
ATOM      2  N   SER A   1      11.673  44.550  -8.377  0.00  0.00    -0.237 NA
ATOM      3  H   SER A   1      11.197  43.703  -8.007  0.00  0.00    +0.142 HD
ENDBRANCH   1   2
BRANCH   1   4
ATOM      4  CB  SER A   1      13.995  44.427  -7.483  0.00  0.00    +0.227 C 
ATOM      5  OG  SER A   1      14.017  43.247  -7.126  0.00  0.00    -0.287 OA
ENDBRANCH   1   4
BRANCH   1   6
ATOM      6  C   SER A   1      12.129  45.423  -6.147  0.00  0.00    +0.162 C 
BRANCH   6   7
ATOM      7  O   SER A   1      12.502  44.372  -5.271  0.00  0.00    -0.380 OA
ATOM      8  H   SER A   1      13.489  44.326  -5.214  0.00  0.00    +0.211 HD
ENDBRANCH   6   7
ENDBRANCH   1   6
TORSDOF 4
REMARK  Name = ../refined-set-2016/3f7g/3f7g_pocket.pdb
REMARK  129 active torsions:
REMARK  status: ('A' for Active; 'I' for Inactive)
REMARK    1  A    between atoms: _1  and  _3
REMARK    2  A    between atoms: _3  and  _4
REMARK    3  A    between atoms: _3  and  _6
REMARK    4  A    between atoms: _9  and  _11
REMARK    5  A    between atoms: _11  and  _12
REMARK    6  A    between atoms: _11  and  _14
REMARK    7  A    between atoms: _14  and  _15
REMARK    8  A    between atoms: _18  and  _20
REMARK    9  A    between atoms: _20  and  _21
REMARK   10  A    between atoms: _20  and  _23
REMARK   11  A    between atoms: _23  and  _24
REMARK   12  A    between atoms: _30  and  _32
REMARK   13  A    between atoms: _32  and  _33
REMARK   14  A    between atoms: _32  and  _35
REMARK   15  A    between atoms: _35  and  _36
REMARK   16  A    between atoms: _42  and  _44
REMARK   17  A    between atoms: _44  and  _45
REMARK   18  A    between atoms: _44  and  _47
REMARK   19  A    between atoms: _47  and  _48
REMARK   20  A    between atoms: _51  and  _53
REMARK   21  A    between atoms: _53  and  _54
REMARK   22  A    between atoms: _53  and  _56
REMARK   23  A    between atoms: _56  and  _57
REMARK   24  A    between atoms: _62  and  _64
REMARK   25  A    between atoms: _64  and  _65
REMARK   26  A    between atoms: _64  and  _67
REMARK   27  A    between atoms: _67  and  _68
REMARK   28  A    between atoms: _68  and  _69
REMARK   29  A    between atoms: _74  and  _76
REMARK   30  A    between atoms: _76  and  _77
REMARK   31  A    between atoms: _76  and  _79
REMARK   32  A    between atoms: _79  and  _80
REMARK   33  A    between atoms: _83  and  _85
REMARK   34  A    between atoms: _85  and  _86
REMARK   35  A    between atoms: _85  and  _88
REMARK   36  A    between atoms: _88  and  _89
REMARK   37  A    between atoms: _89  and  _90
REMARK   38  A    between atoms: _90  and  _91
REMARK   39  A    between atoms: _91  and  _92
REMARK   40  A    between atoms: _96  and  _98
REMARK   41  A    between atoms: _98  and  _99
REMARK   42  A    between atoms: _98  and  _101
REMARK   43  A    between atoms: _104  and  _106
REMARK   44  A    between atoms: _106  and  _107
REMARK   45  A    between atoms: _106  and  _109
REMARK   46  A    between atoms: _109  and  _110
REMARK   47  A    between atoms: _110  and  _111
REMARK   48  A    between atoms: _111  and  _112
REMARK   49  A    between atoms: _121  and  _123
REMARK   50  A    between atoms: _123  and  _124
REMARK   51  A    between atoms: _123  and  _126
REMARK   52  A    between atoms: _128  and  _130
REMARK   53  A    between atoms: _130  and  _131
REMARK   54  A    between atoms: _130  and  _133
REMARK   55  A    between atoms: _133  and  _134
REMARK   56  A    between atoms: _139  and  _140
REMARK   57  A    between atoms: _142  and  _144
REMARK   58  A    between atoms: _144  and  _145
REMARK   59  A    between atoms: _147  and  _149
REMARK   60  A    between atoms: _149  and  _150
REMARK   61  A    between atoms: _152  and  _154
REMARK   62  A    between atoms: _154  and  _155
REMARK   63  A    between atoms: _154  and  _157
REMARK   64  A    between atoms: _157  and  _158
REMARK   65  A    between atoms: _161  and  _163
REMARK   66  A    between atoms: _163  and  _164
REMARK   67  A    between atoms: _163  and  _166
REMARK   68  A    between atoms: _166  and  _167
REMARK   69  A    between atoms: _167  and  _168
REMARK   70  A    between atoms: _173  and  _175
REMARK   71  A    between atoms: _175  and  _176
REMARK   72  A    between atoms: _175  and  _178
REMARK   73  A    between atoms: _178  and  _179
REMARK   74  A    between atoms: _181  and  _183
REMARK   75  A    between atoms: _183  and  _184
REMARK   76  A    between atoms: _183  and  _186
REMARK   77  A    between atoms: _186  and  _187
REMARK   78  A    between atoms: _197  and  _199
REMARK   79  A    between atoms: _199  and  _200
REMARK   80  A    between atoms: _199  and  _202
REMARK   81  A    between atoms: _202  and  _203
REMARK   82  A    between atoms: _203  and  _204
REMARK   83  A    between atoms: _204  and  _205
REMARK   84  A    between atoms: _205  and  _206
REMARK   85  A    between atoms: _210  and  _212
REMARK   86  A    between atoms: _212  and  _213
REMARK   87  A    between atoms: _212  and  _215
REMARK   88  A    between atoms: _215  and  _216
REMARK   89  A    between atoms: _216  and  _217
REMARK   90  A    between atoms: _217  and  _218
REMARK   91  A    between atoms: _227  and  _229
REMARK   92  A    between atoms: _229  and  _230
REMARK   93  A    between atoms: _232  and  _234
REMARK   94  A    between atoms: _234  and  _235
REMARK   95  A    between atoms: _234  and  _237
REMARK   96  A    between atoms: _237  and  _238
REMARK   97  A    between atoms: _241  and  _243
REMARK   98  A    between atoms: _243  and  _244
REMARK   99  A    between atoms: _243  and  _246
REMARK  100  A    between atoms: _246  and  _247
REMARK  101  A    between atoms: _251  and  _252
REMARK  102  A    between atoms: _257  and  _259
REMARK  103  A    between atoms: _259  and  _260
REMARK  104  A    between atoms: _259  and  _262
REMARK  105  A    between atoms: _262  and  _263
REMARK  106  A    between atoms: _263  and  _264
REMARK  107  A    between atoms: _267  and  _269
REMARK  108  A    between atoms: _269  and  _270
REMARK  109  A    between atoms: _269  and  _272
REMARK  110  A    between atoms: _272  and  _273
REMARK  111  A    between atoms: _278  and  _280
REMARK  112  A    between atoms: _280  and  _281
REMARK  113  A    between atoms: _280  and  _283
REMARK  114  A    between atoms: _283  and  _284
REMARK  115  A    between atoms: _284  and  _285
REMARK  116  A    between atoms: _285  and  _286
REMARK  117  A    between atoms: _286  and  _287
REMARK  118  A    between atoms: _291  and  _293
REMARK  119  A    between atoms: _293  and  _294
REMARK  120  A    between atoms: _293  and  _296
REMARK  121  A    between atoms: _296  and  _297
REMARK  122  A    between atoms: _307  and  _309
REMARK  123  A    between atoms: _309  and  _310
REMARK  124  A    between atoms: _309  and  _312
REMARK  125  A    between atoms: _312  and  _313
REMARK  126  A    between atoms: _319  and  _321
REMARK  127  A    between atoms: _321  and  _322
REMARK  128  A    between atoms: _321  and  _324
REMARK  129  A    between atoms: _324  and  _325
REMARK                            x       y       z     vdW  Elec       q    Type
REMARK                         _______ _______ _______ _____ _____    ______ ____
ROOT
ATOM      1  O   HOH     1      18.327  53.125  -9.890  0.00  0.00    +0.000 OA
ENDROOT
TORSDOF 0
REMARK  Name = ../refined-set-2016/3f7g/3f7g_pocket.pdb
REMARK  129 active torsions:
REMARK  status: ('A' for Active; 'I' for Inactive)
REMARK    1  A    between atoms: _1  and  _3
REMARK    2  A    between atoms: _3  and  _4
REMARK    3  A    between atoms: _3  and  _6
REMARK    4  A    between atoms: _9  and  _11
REMARK    5  A    between atoms: _11  and  _12
REMARK    6  A    between atoms: _11  and  _14
REMARK    7  A    between atoms: _14  and  _15
REMARK    8  A    between atoms: _18  and  _20
REMARK    9  A    between atoms: _20  and  _21
REMARK   10  A    between atoms: _20  and  _23
REMARK   11  A    between atoms: _23  and  _24
REMARK   12  A    between atoms: _30  and  _32
REMARK   13  A    between atoms: _32  and  _33
REMARK   14  A    between atoms: _32  and  _35
REMARK   15  A    between atoms: _35  and  _36
REMARK   16  A    between atoms: _42  and  _44
REMARK   17  A    between atoms: _44  and  _45
REMARK   18  A    between atoms: _44  and  _47
REMARK   19  A    between atoms: _47  and  _48
REMARK   20  A    between atoms: _51  and  _53
REMARK   21  A    between atoms: _53  and  _54
REMARK   22  A    between atoms: _53  and  _56
REMARK   23  A    between atoms: _56  and  _57
REMARK   24  A    between atoms: _62  and  _64
REMARK   25  A    between atoms: _64  and  _65
REMARK   26  A    between atoms: _64  and  _67
REMARK   27  A    between atoms: _67  and  _68
REMARK   28  A    between atoms: _68  and  _69
REMARK   29  A    between atoms: _74  and  _76
REMARK   30  A    between atoms: _76  and  _77
REMARK   31  A    between atoms: _76  and  _79
REMARK   32  A    between atoms: _79  and  _80
REMARK   33  A    between atoms: _83  and  _85
REMARK   34  A    between atoms: _85  and  _86
REMARK   35  A    between atoms: _85  and  _88
REMARK   36  A    between atoms: _88  and  _89
REMARK   37  A    between atoms: _89  and  _90
REMARK   38  A    between atoms: _90  and  _91
REMARK   39  A    between atoms: _91  and  _92
REMARK   40  A    between atoms: _96  and  _98
REMARK   41  A    between atoms: _98  and  _99
REMARK   42  A    between atoms: _98  and  _101
REMARK   43  A    between atoms: _104  and  _106
REMARK   44  A    between atoms: _106  and  _107
REMARK   45  A    between atoms: _106  and  _109
REMARK   46  A    between atoms: _109  and  _110
REMARK   47  A    between atoms: _110  and  _111
REMARK   48  A    between atoms: _111  and  _112
REMARK   49  A    between atoms: _121  and  _123
REMARK   50  A    between atoms: _123  and  _124
REMARK   51  A    between atoms: _123  and  _126
REMARK   52  A    between atoms: _128  and  _130
REMARK   53  A    between atoms: _130  and  _131
REMARK   54  A    between atoms: _130  and  _133
REMARK   55  A    between atoms: _133  and  _134
REMARK   56  A    between atoms: _139  and  _140
REMARK   57  A    between atoms: _142  and  _144
REMARK   58  A    between atoms: _144  and  _145
REMARK   59  A    between atoms: _147  and  _149
REMARK   60  A    between atoms: _149  and  _150
REMARK   61  A    between atoms: _152  and  _154
REMARK   62  A    between atoms: _154  and  _155
REMARK   63  A    between atoms: _154  and  _157
REMARK   64  A    between atoms: _157  and  _158
REMARK   65  A    between atoms: _161  and  _163
REMARK   66  A    between atoms: _163  and  _164
REMARK   67  A    between atoms: _163  and  _166
REMARK   68  A    between atoms: _166  and  _167
REMARK   69  A    between atoms: _167  and  _168
REMARK   70  A    between atoms: _173  and  _175
REMARK   71  A    between atoms: _175  and  _176
REMARK   72  A    between atoms: _175  and  _178
REMARK   73  A    between atoms: _178  and  _179
REMARK   74  A    between atoms: _181  and  _183
REMARK   75  A    between atoms: _183  and  _184
REMARK   76  A    between atoms: _183  and  _186
REMARK   77  A    between atoms: _186  and  _187
REMARK   78  A    between atoms: _197  and  _199
REMARK   79  A    between atoms: _199  and  _200
REMARK   80  A    between atoms: _199  and  _202
REMARK   81  A    between atoms: _202  and  _203
REMARK   82  A    between atoms: _203  and  _204
REMARK   83  A    between atoms: _204  and  _205
REMARK   84  A    between atoms: _205  and  _206
REMARK   85  A    between atoms: _210  and  _212
REMARK   86  A    between atoms: _212  and  _213
REMARK   87  A    between atoms: _212  and  _215
REMARK   88  A    between atoms: _215  and  _216
REMARK   89  A    between atoms: _216  and  _217
REMARK   90  A    between atoms: _217  and  _218
REMARK   91  A    between atoms: _227  and  _229
REMARK   92  A    between atoms: _229  and  _230
REMARK   93  A    between atoms: _232  and  _234
REMARK   94  A    between atoms: _234  and  _235
REMARK   95  A    between atoms: _234  and  _237
REMARK   96  A    between atoms: _237  and  _238
REMARK   97  A    between atoms: _241  and  _243
REMARK   98  A    between atoms: _243  and  _244
REMARK   99  A    between atoms: _243  and  _246
REMARK  100  A    between atoms: _246  and  _247
REMARK  101  A    between atoms: _251  and  _252
REMARK  102  A    between atoms: _257  and  _259
REMARK  103  A    between atoms: _259  and  _260
REMARK  104  A    between atoms: _259  and  _262
REMARK  105  A    between atoms: _262  and  _263
REMARK  106  A    between atoms: _263  and  _264
REMARK  107  A    between atoms: _267  and  _269
REMARK  108  A    between atoms: _269  and  _270
REMARK  109  A    between atoms: _269  and  _272
REMARK  110  A    between atoms: _272  and  _273
REMARK  111  A    between atoms: _278  and  _280
REMARK  112  A    between atoms: _280  and  _281
REMARK  113  A    between atoms: _280  and  _283
REMARK  114  A    between atoms: _283  and  _284
REMARK  115  A    between atoms: _284  and  _285
REMARK  116  A    between atoms: _285  and  _286
REMARK  117  A    between atoms: _286  and  _287
REMARK  118  A    between atoms: _291  and  _293
REMARK  119  A    between atoms: _293  and  _294
REMARK  120  A    between atoms: _293  and  _296
REMARK  121  A    between atoms: _296  and  _297
REMARK  122  A    between atoms: _307  and  _309
REMARK  123  A    between atoms: _309  and  _310
REMARK  124  A    between atoms: _309  and  _312
REMARK  125  A    between atoms: _312  and  _313
REMARK  126  A    between atoms: _319  and  _321
REMARK  127  A    between atoms: _321  and  _322
REMARK  128  A    between atoms: _321  and  _324
REMARK  129  A    between atoms: _324  and  _325
REMARK                            x       y       z     vdW  Elec       q    Type
REMARK                         _______ _______ _______ _____ _____    ______ ____
ROOT
ATOM      1  O   HOH     1      28.169  48.340   8.408  0.00  0.00    +0.000 OA
ENDROOT
TORSDOF 0
REMARK  Name = ../refined-set-2016/3f7g/3f7g_pocket.pdb
REMARK  129 active torsions:
REMARK  status: ('A' for Active; 'I' for Inactive)
REMARK    1  A    between atoms: _1  and  _3
REMARK    2  A    between atoms: _3  and  _4
REMARK    3  A    between atoms: _3  and  _6
REMARK    4  A    between atoms: _9  and  _11
REMARK    5  A    between atoms: _11  and  _12
REMARK    6  A    between atoms: _11  and  _14
REMARK    7  A    between atoms: _14  and  _15
REMARK    8  A    between atoms: _18  and  _20
REMARK    9  A    between atoms: _20  and  _21
REMARK   10  A    between atoms: _20  and  _23
REMARK   11  A    between atoms: _23  and  _24
REMARK   12  A    between atoms: _30  and  _32
REMARK   13  A    between atoms: _32  and  _33
REMARK   14  A    between atoms: _32  and  _35
REMARK   15  A    between atoms: _35  and  _36
REMARK   16  A    between atoms: _42  and  _44
REMARK   17  A    between atoms: _44  and  _45
REMARK   18  A    between atoms: _44  and  _47
REMARK   19  A    between atoms: _47  and  _48
REMARK   20  A    between atoms: _51  and  _53
REMARK   21  A    between atoms: _53  and  _54
REMARK   22  A    between atoms: _53  and  _56
REMARK   23  A    between atoms: _56  and  _57
REMARK   24  A    between atoms: _62  and  _64
REMARK   25  A    between atoms: _64  and  _65
REMARK   26  A    between atoms: _64  and  _67
REMARK   27  A    between atoms: _67  and  _68
REMARK   28  A    between atoms: _68  and  _69
REMARK   29  A    between atoms: _74  and  _76
REMARK   30  A    between atoms: _76  and  _77
REMARK   31  A    between atoms: _76  and  _79
REMARK   32  A    between atoms: _79  and  _80
REMARK   33  A    between atoms: _83  and  _85
REMARK   34  A    between atoms: _85  and  _86
REMARK   35  A    between atoms: _85  and  _88
REMARK   36  A    between atoms: _88  and  _89
REMARK   37  A    between atoms: _89  and  _90
REMARK   38  A    between atoms: _90  and  _91
REMARK   39  A    between atoms: _91  and  _92
REMARK   40  A    between atoms: _96  and  _98
REMARK   41  A    between atoms: _98  and  _99
REMARK   42  A    between atoms: _98  and  _101
REMARK   43  A    between atoms: _104  and  _106
REMARK   44  A    between atoms: _106  and  _107
REMARK   45  A    between atoms: _106  and  _109
REMARK   46  A    between atoms: _109  and  _110
REMARK   47  A    between atoms: _110  and  _111
REMARK   48  A    between atoms: _111  and  _112
REMARK   49  A    between atoms: _121  and  _123
REMARK   50  A    between atoms: _123  and  _124
REMARK   51  A    between atoms: _123  and  _126
REMARK   52  A    between atoms: _128  and  _130
REMARK   53  A    between atoms: _130  and  _131
REMARK   54  A    between atoms: _130  and  _133
REMARK   55  A    between atoms: _133  and  _134
REMARK   56  A    between atoms: _139  and  _140
REMARK   57  A    between atoms: _142  and  _144
REMARK   58  A    between atoms: _144  and  _145
REMARK   59  A    between atoms: _147  and  _149
REMARK   60  A    between atoms: _149  and  _150
REMARK   61  A    between atoms: _152  and  _154
REMARK   62  A    between atoms: _154  and  _155
REMARK   63  A    between atoms: _154  and  _157
REMARK   64  A    between atoms: _157  and  _158
REMARK   65  A    between atoms: _161  and  _163
REMARK   66  A    between atoms: _163  and  _164
REMARK   67  A    between atoms: _163  and  _166
REMARK   68  A    between atoms: _166  and  _167
REMARK   69  A    between atoms: _167  and  _168
REMARK   70  A    between atoms: _173  and  _175
REMARK   71  A    between atoms: _175  and  _176
REMARK   72  A    between atoms: _175  and  _178
REMARK   73  A    between atoms: _178  and  _179
REMARK   74  A    between atoms: _181  and  _183
REMARK   75  A    between atoms: _183  and  _184
REMARK   76  A    between atoms: _183  and  _186
REMARK   77  A    between atoms: _186  and  _187
REMARK   78  A    between atoms: _197  and  _199
REMARK   79  A    between atoms: _199  and  _200
REMARK   80  A    between atoms: _199  and  _202
REMARK   81  A    between atoms: _202  and  _203
REMARK   82  A    between atoms: _203  and  _204
REMARK   83  A    between atoms: _204  and  _205
REMARK   84  A    between atoms: _205  and  _206
REMARK   85  A    between atoms: _210  and  _212
REMARK   86  A    between atoms: _212  and  _213
REMARK   87  A    between atoms: _212  and  _215
REMARK   88  A    between atoms: _215  and  _216
REMARK   89  A    between atoms: _216  and  _217
REMARK   90  A    between atoms: _217  and  _218
REMARK   91  A    between atoms: _227  and  _229
REMARK   92  A    between atoms: _229  and  _230
REMARK   93  A    between atoms: _232  and  _234
REMARK   94  A    between atoms: _234  and  _235
REMARK   95  A    between atoms: _234  and  _237
REMARK   96  A    between atoms: _237  and  _238
REMARK   97  A    between atoms: _241  and  _243
REMARK   98  A    between atoms: _243  and  _244
REMARK   99  A    between atoms: _243  and  _246
REMARK  100  A    between atoms: _246  and  _247
REMARK  101  A    between atoms: _251  and  _252
REMARK  102  A    between atoms: _257  and  _259
REMARK  103  A    between atoms: _259  and  _260
REMARK  104  A    between atoms: _259  and  _262
REMARK  105  A    between atoms: _262  and  _263
REMARK  106  A    between atoms: _263  and  _264
REMARK  107  A    between atoms: _267  and  _269
REMARK  108  A    between atoms: _269  and  _270
REMARK  109  A    between atoms: _269  and  _272
REMARK  110  A    between atoms: _272  and  _273
REMARK  111  A    between atoms: _278  and  _280
REMARK  112  A    between atoms: _280  and  _281
REMARK  113  A    between atoms: _280  and  _283
REMARK  114  A    between atoms: _283  and  _284
REMARK  115  A    between atoms: _284  and  _285
REMARK  116  A    between atoms: _285  and  _286
REMARK  117  A    between atoms: _286  and  _287
REMARK  118  A    between atoms: _291  and  _293
REMARK  119  A    between atoms: _293  and  _294
REMARK  120  A    between atoms: _293  and  _296
REMARK  121  A    between atoms: _296  and  _297
REMARK  122  A    between atoms: _307  and  _309
REMARK  123  A    between atoms: _309  and  _310
REMARK  124  A    between atoms: _309  and  _312
REMARK  125  A    between atoms: _312  and  _313
REMARK  126  A    between atoms: _319  and  _321
REMARK  127  A    between atoms: _321  and  _322
REMARK  128  A    between atoms: _321  and  _324
REMARK  129  A    between atoms: _324  and  _325
REMARK                            x       y       z     vdW  Elec       q    Type
REMARK                         _______ _______ _______ _____ _____    ______ ____
ROOT
ATOM      1  O   HOH     1      15.999  44.066   0.294  0.00  0.00    +0.000 OA
ENDROOT
TORSDOF 0
REMARK  Name = ../refined-set-2016/3f7g/3f7g_pocket.pdb
REMARK  129 active torsions:
REMARK  status: ('A' for Active; 'I' for Inactive)
REMARK    1  A    between atoms: _1  and  _3
REMARK    2  A    between atoms: _3  and  _4
REMARK    3  A    between atoms: _3  and  _6
REMARK    4  A    between atoms: _9  and  _11
REMARK    5  A    between atoms: _11  and  _12
REMARK    6  A    between atoms: _11  and  _14
REMARK    7  A    between atoms: _14  and  _15
REMARK    8  A    between atoms: _18  and  _20
REMARK    9  A    between atoms: _20  and  _21
REMARK   10  A    between atoms: _20  and  _23
REMARK   11  A    between atoms: _23  and  _24
REMARK   12  A    between atoms: _30  and  _32
REMARK   13  A    between atoms: _32  and  _33
REMARK   14  A    between atoms: _32  and  _35
REMARK   15  A    between atoms: _35  and  _36
REMARK   16  A    between atoms: _42  and  _44
REMARK   17  A    between atoms: _44  and  _45
REMARK   18  A    between atoms: _44  and  _47
REMARK   19  A    between atoms: _47  and  _48
REMARK   20  A    between atoms: _51  and  _53
REMARK   21  A    between atoms: _53  and  _54
REMARK   22  A    between atoms: _53  and  _56
REMARK   23  A    between atoms: _56  and  _57
REMARK   24  A    between atoms: _62  and  _64
REMARK   25  A    between atoms: _64  and  _65
REMARK   26  A    between atoms: _64  and  _67
REMARK   27  A    between atoms: _67  and  _68
REMARK   28  A    between atoms: _68  and  _69
REMARK   29  A    between atoms: _74  and  _76
REMARK   30  A    between atoms: _76  and  _77
REMARK   31  A    between atoms: _76  and  _79
REMARK   32  A    between atoms: _79  and  _80
REMARK   33  A    between atoms: _83  and  _85
REMARK   34  A    between atoms: _85  and  _86
REMARK   35  A    between atoms: _85  and  _88
REMARK   36  A    between atoms: _88  and  _89
REMARK   37  A    between atoms: _89  and  _90
REMARK   38  A    between atoms: _90  and  _91
REMARK   39  A    between atoms: _91  and  _92
REMARK   40  A    between atoms: _96  and  _98
REMARK   41  A    between atoms: _98  and  _99
REMARK   42  A    between atoms: _98  and  _101
REMARK   43  A    between atoms: _104  and  _106
REMARK   44  A    between atoms: _106  and  _107
REMARK   45  A    between atoms: _106  and  _109
REMARK   46  A    between atoms: _109  and  _110
REMARK   47  A    between atoms: _110  and  _111
REMARK   48  A    between atoms: _111  and  _112
REMARK   49  A    between atoms: _121  and  _123
REMARK   50  A    between atoms: _123  and  _124
REMARK   51  A    between atoms: _123  and  _126
REMARK   52  A    between atoms: _128  and  _130
REMARK   53  A    between atoms: _130  and  _131
REMARK   54  A    between atoms: _130  and  _133
REMARK   55  A    between atoms: _133  and  _134
REMARK   56  A    between atoms: _139  and  _140
REMARK   57  A    between atoms: _142  and  _144
REMARK   58  A    between atoms: _144  and  _145
REMARK   59  A    between atoms: _147  and  _149
REMARK   60  A    between atoms: _149  and  _150
REMARK   61  A    between atoms: _152  and  _154
REMARK   62  A    between atoms: _154  and  _155
REMARK   63  A    between atoms: _154  and  _157
REMARK   64  A    between atoms: _157  and  _158
REMARK   65  A    between atoms: _161  and  _163
REMARK   66  A    between atoms: _163  and  _164
REMARK   67  A    between atoms: _163  and  _166
REMARK   68  A    between atoms: _166  and  _167
REMARK   69  A    between atoms: _167  and  _168
REMARK   70  A    between atoms: _173  and  _175
REMARK   71  A    between atoms: _175  and  _176
REMARK   72  A    between atoms: _175  and  _178
REMARK   73  A    between atoms: _178  and  _179
REMARK   74  A    between atoms: _181  and  _183
REMARK   75  A    between atoms: _183  and  _184
REMARK   76  A    between atoms: _183  and  _186
REMARK   77  A    between atoms: _186  and  _187
REMARK   78  A    between atoms: _197  and  _199
REMARK   79  A    between atoms: _199  and  _200
REMARK   80  A    between atoms: _199  and  _202
REMARK   81  A    between atoms: _202  and  _203
REMARK   82  A    between atoms: _203  and  _204
REMARK   83  A    between atoms: _204  and  _205
REMARK   84  A    between atoms: _205  and  _206
REMARK   85  A    between atoms: _210  and  _212
REMARK   86  A    between atoms: _212  and  _213
REMARK   87  A    between atoms: _212  and  _215
REMARK   88  A    between atoms: _215  and  _216
REMARK   89  A    between atoms: _216  and  _217
REMARK   90  A    between atoms: _217  and  _218
REMARK   91  A    between atoms: _227  and  _229
REMARK   92  A    between atoms: _229  and  _230
REMARK   93  A    between atoms: _232  and  _234
REMARK   94  A    between atoms: _234  and  _235
REMARK   95  A    between atoms: _234  and  _237
REMARK   96  A    between atoms: _237  and  _238
REMARK   97  A    between atoms: _241  and  _243
REMARK   98  A    between atoms: _243  and  _244
REMARK   99  A    between atoms: _243  and  _246
REMARK  100  A    between atoms: _246  and  _247
REMARK  101  A    between atoms: _251  and  _252
REMARK  102  A    between atoms: _257  and  _259
REMARK  103  A    between atoms: _259  and  _260
REMARK  104  A    between atoms: _259  and  _262
REMARK  105  A    between atoms: _262  and  _263
REMARK  106  A    between atoms: _263  and  _264
REMARK  107  A    between atoms: _267  and  _269
REMARK  108  A    between atoms: _269  and  _270
REMARK  109  A    between atoms: _269  and  _272
REMARK  110  A    between atoms: _272  and  _273
REMARK  111  A    between atoms: _278  and  _280
REMARK  112  A    between atoms: _280  and  _281
REMARK  113  A    between atoms: _280  and  _283
REMARK  114  A    between atoms: _283  and  _284
REMARK  115  A    between atoms: _284  and  _285
REMARK  116  A    between atoms: _285  and  _286
REMARK  117  A    between atoms: _286  and  _287
REMARK  118  A    between atoms: _291  and  _293
REMARK  119  A    between atoms: _293  and  _294
REMARK  120  A    between atoms: _293  and  _296
REMARK  121  A    between atoms: _296  and  _297
REMARK  122  A    between atoms: _307  and  _309
REMARK  123  A    between atoms: _309  and  _310
REMARK  124  A    between atoms: _309  and  _312
REMARK  125  A    between atoms: _312  and  _313
REMARK  126  A    between atoms: _319  and  _321
REMARK  127  A    between atoms: _321  and  _322
REMARK  128  A    between atoms: _321  and  _324
REMARK  129  A    between atoms: _324  and  _325
REMARK                            x       y       z     vdW  Elec       q    Type
REMARK                         _______ _______ _______ _____ _____    ______ ____
ROOT
ATOM      1  O   HOH     1      30.613  48.530   6.792  0.00  0.00    +0.000 OA
ENDROOT
TORSDOF 0
REMARK  Name = ../refined-set-2016/3f7g/3f7g_pocket.pdb
REMARK  129 active torsions:
REMARK  status: ('A' for Active; 'I' for Inactive)
REMARK    1  A    between atoms: _1  and  _3
REMARK    2  A    between atoms: _3  and  _4
REMARK    3  A    between atoms: _3  and  _6
REMARK    4  A    between atoms: _9  and  _11
REMARK    5  A    between atoms: _11  and  _12
REMARK    6  A    between atoms: _11  and  _14
REMARK    7  A    between atoms: _14  and  _15
REMARK    8  A    between atoms: _18  and  _20
REMARK    9  A    between atoms: _20  and  _21
REMARK   10  A    between atoms: _20  and  _23
REMARK   11  A    between atoms: _23  and  _24
REMARK   12  A    between atoms: _30  and  _32
REMARK   13  A    between atoms: _32  and  _33
REMARK   14  A    between atoms: _32  and  _35
REMARK   15  A    between atoms: _35  and  _36
REMARK   16  A    between atoms: _42  and  _44
REMARK   17  A    between atoms: _44  and  _45
REMARK   18  A    between atoms: _44  and  _47
REMARK   19  A    between atoms: _47  and  _48
REMARK   20  A    between atoms: _51  and  _53
REMARK   21  A    between atoms: _53  and  _54
REMARK   22  A    between atoms: _53  and  _56
REMARK   23  A    between atoms: _56  and  _57
REMARK   24  A    between atoms: _62  and  _64
REMARK   25  A    between atoms: _64  and  _65
REMARK   26  A    between atoms: _64  and  _67
REMARK   27  A    between atoms: _67  and  _68
REMARK   28  A    between atoms: _68  and  _69
REMARK   29  A    between atoms: _74  and  _76
REMARK   30  A    between atoms: _76  and  _77
REMARK   31  A    between atoms: _76  and  _79
REMARK   32  A    between atoms: _79  and  _80
REMARK   33  A    between atoms: _83  and  _85
REMARK   34  A    between atoms: _85  and  _86
REMARK   35  A    between atoms: _85  and  _88
REMARK   36  A    between atoms: _88  and  _89
REMARK   37  A    between atoms: _89  and  _90
REMARK   38  A    between atoms: _90  and  _91
REMARK   39  A    between atoms: _91  and  _92
REMARK   40  A    between atoms: _96  and  _98
REMARK   41  A    between atoms: _98  and  _99
REMARK   42  A    between atoms: _98  and  _101
REMARK   43  A    between atoms: _104  and  _106
REMARK   44  A    between atoms: _106  and  _107
REMARK   45  A    between atoms: _106  and  _109
REMARK   46  A    between atoms: _109  and  _110
REMARK   47  A    between atoms: _110  and  _111
REMARK   48  A    between atoms: _111  and  _112
REMARK   49  A    between atoms: _121  and  _123
REMARK   50  A    between atoms: _123  and  _124
REMARK   51  A    between atoms: _123  and  _126
REMARK   52  A    between atoms: _128  and  _130
REMARK   53  A    between atoms: _130  and  _131
REMARK   54  A    between atoms: _130  and  _133
REMARK   55  A    between atoms: _133  and  _134
REMARK   56  A    between atoms: _139  and  _140
REMARK   57  A    between atoms: _142  and  _144
REMARK   58  A    between atoms: _144  and  _145
REMARK   59  A    between atoms: _147  and  _149
REMARK   60  A    between atoms: _149  and  _150
REMARK   61  A    between atoms: _152  and  _154
REMARK   62  A    between atoms: _154  and  _155
REMARK   63  A    between atoms: _154  and  _157
REMARK   64  A    between atoms: _157  and  _158
REMARK   65  A    between atoms: _161  and  _163
REMARK   66  A    between atoms: _163  and  _164
REMARK   67  A    between atoms: _163  and  _166
REMARK   68  A    between atoms: _166  and  _167
REMARK   69  A    between atoms: _167  and  _168
REMARK   70  A    between atoms: _173  and  _175
REMARK   71  A    between atoms: _175  and  _176
REMARK   72  A    between atoms: _175  and  _178
REMARK   73  A    between atoms: _178  and  _179
REMARK   74  A    between atoms: _181  and  _183
REMARK   75  A    between atoms: _183  and  _184
REMARK   76  A    between atoms: _183  and  _186
REMARK   77  A    between atoms: _186  and  _187
REMARK   78  A    between atoms: _197  and  _199
REMARK   79  A    between atoms: _199  and  _200
REMARK   80  A    between atoms: _199  and  _202
REMARK   81  A    between atoms: _202  and  _203
REMARK   82  A    between atoms: _203  and  _204
REMARK   83  A    between atoms: _204  and  _205
REMARK   84  A    between atoms: _205  and  _206
REMARK   85  A    between atoms: _210  and  _212
REMARK   86  A    between atoms: _212  and  _213
REMARK   87  A    between atoms: _212  and  _215
REMARK   88  A    between atoms: _215  and  _216
REMARK   89  A    between atoms: _216  and  _217
REMARK   90  A    between atoms: _217  and  _218
REMARK   91  A    between atoms: _227  and  _229
REMARK   92  A    between atoms: _229  and  _230
REMARK   93  A    between atoms: _232  and  _234
REMARK   94  A    between atoms: _234  and  _235
REMARK   95  A    between atoms: _234  and  _237
REMARK   96  A    between atoms: _237  and  _238
REMARK   97  A    between atoms: _241  and  _243
REMARK   98  A    between atoms: _243  and  _244
REMARK   99  A    between atoms: _243  and  _246
REMARK  100  A    between atoms: _246  and  _247
REMARK  101  A    between atoms: _251  and  _252
REMARK  102  A    between atoms: _257  and  _259
REMARK  103  A    between atoms: _259  and  _260
REMARK  104  A    between atoms: _259  and  _262
REMARK  105  A    between atoms: _262  and  _263
REMARK  106  A    between atoms: _263  and  _264
REMARK  107  A    between atoms: _267  and  _269
REMARK  108  A    between atoms: _269  and  _270
REMARK  109  A    between atoms: _269  and  _272
REMARK  110  A    between atoms: _272  and  _273
REMARK  111  A    between atoms: _278  and  _280
REMARK  112  A    between atoms: _280  and  _281
REMARK  113  A    between atoms: _280  and  _283
REMARK  114  A    between atoms: _283  and  _284
REMARK  115  A    between atoms: _284  and  _285
REMARK  116  A    between atoms: _285  and  _286
REMARK  117  A    between atoms: _286  and  _287
REMARK  118  A    between atoms: _291  and  _293
REMARK  119  A    between atoms: _293  and  _294
REMARK  120  A    between atoms: _293  and  _296
REMARK  121  A    between atoms: _296  and  _297
REMARK  122  A    between atoms: _307  and  _309
REMARK  123  A    between atoms: _309  and  _310
REMARK  124  A    between atoms: _309  and  _312
REMARK  125  A    between atoms: _312  and  _313
REMARK  126  A    between atoms: _319  and  _321
REMARK  127  A    between atoms: _321  and  _322
REMARK  128  A    between atoms: _321  and  _324
REMARK  129  A    between atoms: _324  and  _325
REMARK                            x       y       z     vdW  Elec       q    Type
REMARK                         _______ _______ _______ _____ _____    ______ ____
ROOT
ATOM      1  O   HOH     1      19.170  47.543  -8.868  0.00  0.00    +0.000 OA
ENDROOT
TORSDOF 0
REMARK  Name = ../refined-set-2016/3f7g/3f7g_pocket.pdb
REMARK  129 active torsions:
REMARK  status: ('A' for Active; 'I' for Inactive)
REMARK    1  A    between atoms: _1  and  _3
REMARK    2  A    between atoms: _3  and  _4
REMARK    3  A    between atoms: _3  and  _6
REMARK    4  A    between atoms: _9  and  _11
REMARK    5  A    between atoms: _11  and  _12
REMARK    6  A    between atoms: _11  and  _14
REMARK    7  A    between atoms: _14  and  _15
REMARK    8  A    between atoms: _18  and  _20
REMARK    9  A    between atoms: _20  and  _21
REMARK   10  A    between atoms: _20  and  _23
REMARK   11  A    between atoms: _23  and  _24
REMARK   12  A    between atoms: _30  and  _32
REMARK   13  A    between atoms: _32  and  _33
REMARK   14  A    between atoms: _32  and  _35
REMARK   15  A    between atoms: _35  and  _36
REMARK   16  A    between atoms: _42  and  _44
REMARK   17  A    between atoms: _44  and  _45
REMARK   18  A    between atoms: _44  and  _47
REMARK   19  A    between atoms: _47  and  _48
REMARK   20  A    between atoms: _51  and  _53
REMARK   21  A    between atoms: _53  and  _54
REMARK   22  A    between atoms: _53  and  _56
REMARK   23  A    between atoms: _56  and  _57
REMARK   24  A    between atoms: _62  and  _64
REMARK   25  A    between atoms: _64  and  _65
REMARK   26  A    between atoms: _64  and  _67
REMARK   27  A    between atoms: _67  and  _68
REMARK   28  A    between atoms: _68  and  _69
REMARK   29  A    between atoms: _74  and  _76
REMARK   30  A    between atoms: _76  and  _77
REMARK   31  A    between atoms: _76  and  _79
REMARK   32  A    between atoms: _79  and  _80
REMARK   33  A    between atoms: _83  and  _85
REMARK   34  A    between atoms: _85  and  _86
REMARK   35  A    between atoms: _85  and  _88
REMARK   36  A    between atoms: _88  and  _89
REMARK   37  A    between atoms: _89  and  _90
REMARK   38  A    between atoms: _90  and  _91
REMARK   39  A    between atoms: _91  and  _92
REMARK   40  A    between atoms: _96  and  _98
REMARK   41  A    between atoms: _98  and  _99
REMARK   42  A    between atoms: _98  and  _101
REMARK   43  A    between atoms: _104  and  _106
REMARK   44  A    between atoms: _106  and  _107
REMARK   45  A    between atoms: _106  and  _109
REMARK   46  A    between atoms: _109  and  _110
REMARK   47  A    between atoms: _110  and  _111
REMARK   48  A    between atoms: _111  and  _112
REMARK   49  A    between atoms: _121  and  _123
REMARK   50  A    between atoms: _123  and  _124
REMARK   51  A    between atoms: _123  and  _126
REMARK   52  A    between atoms: _128  and  _130
REMARK   53  A    between atoms: _130  and  _131
REMARK   54  A    between atoms: _130  and  _133
REMARK   55  A    between atoms: _133  and  _134
REMARK   56  A    between atoms: _139  and  _140
REMARK   57  A    between atoms: _142  and  _144
REMARK   58  A    between atoms: _144  and  _145
REMARK   59  A    between atoms: _147  and  _149
REMARK   60  A    between atoms: _149  and  _150
REMARK   61  A    between atoms: _152  and  _154
REMARK   62  A    between atoms: _154  and  _155
REMARK   63  A    between atoms: _154  and  _157
REMARK   64  A    between atoms: _157  and  _158
REMARK   65  A    between atoms: _161  and  _163
REMARK   66  A    between atoms: _163  and  _164
REMARK   67  A    between atoms: _163  and  _166
REMARK   68  A    between atoms: _166  and  _167
REMARK   69  A    between atoms: _167  and  _168
REMARK   70  A    between atoms: _173  and  _175
REMARK   71  A    between atoms: _175  and  _176
REMARK   72  A    between atoms: _175  and  _178
REMARK   73  A    between atoms: _178  and  _179
REMARK   74  A    between atoms: _181  and  _183
REMARK   75  A    between atoms: _183  and  _184
REMARK   76  A    between atoms: _183  and  _186
REMARK   77  A    between atoms: _186  and  _187
REMARK   78  A    between atoms: _197  and  _199
REMARK   79  A    between atoms: _199  and  _200
REMARK   80  A    between atoms: _199  and  _202
REMARK   81  A    between atoms: _202  and  _203
REMARK   82  A    between atoms: _203  and  _204
REMARK   83  A    between atoms: _204  and  _205
REMARK   84  A    between atoms: _205  and  _206
REMARK   85  A    between atoms: _210  and  _212
REMARK   86  A    between atoms: _212  and  _213
REMARK   87  A    between atoms: _212  and  _215
REMARK   88  A    between atoms: _215  and  _216
REMARK   89  A    between atoms: _216  and  _217
REMARK   90  A    between atoms: _217  and  _218
REMARK   91  A    between atoms: _227  and  _229
REMARK   92  A    between atoms: _229  and  _230
REMARK   93  A    between atoms: _232  and  _234
REMARK   94  A    between atoms: _234  and  _235
REMARK   95  A    between atoms: _234  and  _237
REMARK   96  A    between atoms: _237  and  _238
REMARK   97  A    between atoms: _241  and  _243
REMARK   98  A    between atoms: _243  and  _244
REMARK   99  A    between atoms: _243  and  _246
REMARK  100  A    between atoms: _246  and  _247
REMARK  101  A    between atoms: _251  and  _252
REMARK  102  A    between atoms: _257  and  _259
REMARK  103  A    between atoms: _259  and  _260
REMARK  104  A    between atoms: _259  and  _262
REMARK  105  A    between atoms: _262  and  _263
REMARK  106  A    between atoms: _263  and  _264
REMARK  107  A    between atoms: _267  and  _269
REMARK  108  A    between atoms: _269  and  _270
REMARK  109  A    between atoms: _269  and  _272
REMARK  110  A    between atoms: _272  and  _273
REMARK  111  A    between atoms: _278  and  _280
REMARK  112  A    between atoms: _280  and  _281
REMARK  113  A    between atoms: _280  and  _283
REMARK  114  A    between atoms: _283  and  _284
REMARK  115  A    between atoms: _284  and  _285
REMARK  116  A    between atoms: _285  and  _286
REMARK  117  A    between atoms: _286  and  _287
REMARK  118  A    between atoms: _291  and  _293
REMARK  119  A    between atoms: _293  and  _294
REMARK  120  A    between atoms: _293  and  _296
REMARK  121  A    between atoms: _296  and  _297
REMARK  122  A    between atoms: _307  and  _309
REMARK  123  A    between atoms: _309  and  _310
REMARK  124  A    between atoms: _309  and  _312
REMARK  125  A    between atoms: _312  and  _313
REMARK  126  A    between atoms: _319  and  _321
REMARK  127  A    between atoms: _321  and  _322
REMARK  128  A    between atoms: _321  and  _324
REMARK  129  A    between atoms: _324  and  _325
REMARK                            x       y       z     vdW  Elec       q    Type
REMARK                         _______ _______ _______ _____ _____    ______ ____
ROOT
ATOM      1  O   HOH     1      25.337  46.541  -8.604  0.00  0.00    +0.000 OA
ENDROOT
TORSDOF 0
REMARK  Name = ../refined-set-2016/3f7g/3f7g_pocket.pdb
REMARK  129 active torsions:
REMARK  status: ('A' for Active; 'I' for Inactive)
REMARK    1  A    between atoms: _1  and  _3
REMARK    2  A    between atoms: _3  and  _4
REMARK    3  A    between atoms: _3  and  _6
REMARK    4  A    between atoms: _9  and  _11
REMARK    5  A    between atoms: _11  and  _12
REMARK    6  A    between atoms: _11  and  _14
REMARK    7  A    between atoms: _14  and  _15
REMARK    8  A    between atoms: _18  and  _20
REMARK    9  A    between atoms: _20  and  _21
REMARK   10  A    between atoms: _20  and  _23
REMARK   11  A    between atoms: _23  and  _24
REMARK   12  A    between atoms: _30  and  _32
REMARK   13  A    between atoms: _32  and  _33
REMARK   14  A    between atoms: _32  and  _35
REMARK   15  A    between atoms: _35  and  _36
REMARK   16  A    between atoms: _42  and  _44
REMARK   17  A    between atoms: _44  and  _45
REMARK   18  A    between atoms: _44  and  _47
REMARK   19  A    between atoms: _47  and  _48
REMARK   20  A    between atoms: _51  and  _53
REMARK   21  A    between atoms: _53  and  _54
REMARK   22  A    between atoms: _53  and  _56
REMARK   23  A    between atoms: _56  and  _57
REMARK   24  A    between atoms: _62  and  _64
REMARK   25  A    between atoms: _64  and  _65
REMARK   26  A    between atoms: _64  and  _67
REMARK   27  A    between atoms: _67  and  _68
REMARK   28  A    between atoms: _68  and  _69
REMARK   29  A    between atoms: _74  and  _76
REMARK   30  A    between atoms: _76  and  _77
REMARK   31  A    between atoms: _76  and  _79
REMARK   32  A    between atoms: _79  and  _80
REMARK   33  A    between atoms: _83  and  _85
REMARK   34  A    between atoms: _85  and  _86
REMARK   35  A    between atoms: _85  and  _88
REMARK   36  A    between atoms: _88  and  _89
REMARK   37  A    between atoms: _89  and  _90
REMARK   38  A    between atoms: _90  and  _91
REMARK   39  A    between atoms: _91  and  _92
REMARK   40  A    between atoms: _96  and  _98
REMARK   41  A    between atoms: _98  and  _99
REMARK   42  A    between atoms: _98  and  _101
REMARK   43  A    between atoms: _104  and  _106
REMARK   44  A    between atoms: _106  and  _107
REMARK   45  A    between atoms: _106  and  _109
REMARK   46  A    between atoms: _109  and  _110
REMARK   47  A    between atoms: _110  and  _111
REMARK   48  A    between atoms: _111  and  _112
REMARK   49  A    between atoms: _121  and  _123
REMARK   50  A    between atoms: _123  and  _124
REMARK   51  A    between atoms: _123  and  _126
REMARK   52  A    between atoms: _128  and  _130
REMARK   53  A    between atoms: _130  and  _131
REMARK   54  A    between atoms: _130  and  _133
REMARK   55  A    between atoms: _133  and  _134
REMARK   56  A    between atoms: _139  and  _140
REMARK   57  A    between atoms: _142  and  _144
REMARK   58  A    between atoms: _144  and  _145
REMARK   59  A    between atoms: _147  and  _149
REMARK   60  A    between atoms: _149  and  _150
REMARK   61  A    between atoms: _152  and  _154
REMARK   62  A    between atoms: _154  and  _155
REMARK   63  A    between atoms: _154  and  _157
REMARK   64  A    between atoms: _157  and  _158
REMARK   65  A    between atoms: _161  and  _163
REMARK   66  A    between atoms: _163  and  _164
REMARK   67  A    between atoms: _163  and  _166
REMARK   68  A    between atoms: _166  and  _167
REMARK   69  A    between atoms: _167  and  _168
REMARK   70  A    between atoms: _173  and  _175
REMARK   71  A    between atoms: _175  and  _176
REMARK   72  A    between atoms: _175  and  _178
REMARK   73  A    between atoms: _178  and  _179
REMARK   74  A    between atoms: _181  and  _183
REMARK   75  A    between atoms: _183  and  _184
REMARK   76  A    between atoms: _183  and  _186
REMARK   77  A    between atoms: _186  and  _187
REMARK   78  A    between atoms: _197  and  _199
REMARK   79  A    between atoms: _199  and  _200
REMARK   80  A    between atoms: _199  and  _202
REMARK   81  A    between atoms: _202  and  _203
REMARK   82  A    between atoms: _203  and  _204
REMARK   83  A    between atoms: _204  and  _205
REMARK   84  A    between atoms: _205  and  _206
REMARK   85  A    between atoms: _210  and  _212
REMARK   86  A    between atoms: _212  and  _213
REMARK   87  A    between atoms: _212  and  _215
REMARK   88  A    between atoms: _215  and  _216
REMARK   89  A    between atoms: _216  and  _217
REMARK   90  A    between atoms: _217  and  _218
REMARK   91  A    between atoms: _227  and  _229
REMARK   92  A    between atoms: _229  and  _230
REMARK   93  A    between atoms: _232  and  _234
REMARK   94  A    between atoms: _234  and  _235
REMARK   95  A    between atoms: _234  and  _237
REMARK   96  A    between atoms: _237  and  _238
REMARK   97  A    between atoms: _241  and  _243
REMARK   98  A    between atoms: _243  and  _244
REMARK   99  A    between atoms: _243  and  _246
REMARK  100  A    between atoms: _246  and  _247
REMARK  101  A    between atoms: _251  and  _252
REMARK  102  A    between atoms: _257  and  _259
REMARK  103  A    between atoms: _259  and  _260
REMARK  104  A    between atoms: _259  and  _262
REMARK  105  A    between atoms: _262  and  _263
REMARK  106  A    between atoms: _263  and  _264
REMARK  107  A    between atoms: _267  and  _269
REMARK  108  A    between atoms: _269  and  _270
REMARK  109  A    between atoms: _269  and  _272
REMARK  110  A    between atoms: _272  and  _273
REMARK  111  A    between atoms: _278  and  _280
REMARK  112  A    between atoms: _280  and  _281
REMARK  113  A    between atoms: _280  and  _283
REMARK  114  A    between atoms: _283  and  _284
REMARK  115  A    between atoms: _284  and  _285
REMARK  116  A    between atoms: _285  and  _286
REMARK  117  A    between atoms: _286  and  _287
REMARK  118  A    between atoms: _291  and  _293
REMARK  119  A    between atoms: _293  and  _294
REMARK  120  A    between atoms: _293  and  _296
REMARK  121  A    between atoms: _296  and  _297
REMARK  122  A    between atoms: _307  and  _309
REMARK  123  A    between atoms: _309  and  _310
REMARK  124  A    between atoms: _309  and  _312
REMARK  125  A    between atoms: _312  and  _313
REMARK  126  A    between atoms: _319  and  _321
REMARK  127  A    between atoms: _321  and  _322
REMARK  128  A    between atoms: _321  and  _324
REMARK  129  A    between atoms: _324  and  _325
REMARK                            x       y       z     vdW  Elec       q    Type
REMARK                         _______ _______ _______ _____ _____    ______ ____
ROOT
ATOM      1  O   HOH     1      22.919  47.123  -9.260  0.00  0.00    +0.000 OA
ENDROOT
TORSDOF 0
REMARK  Name = ../refined-set-2016/3f7g/3f7g_pocket.pdb
REMARK  129 active torsions:
REMARK  status: ('A' for Active; 'I' for Inactive)
REMARK    1  A    between atoms: _1  and  _3
REMARK    2  A    between atoms: _3  and  _4
REMARK    3  A    between atoms: _3  and  _6
REMARK    4  A    between atoms: _9  and  _11
REMARK    5  A    between atoms: _11  and  _12
REMARK    6  A    between atoms: _11  and  _14
REMARK    7  A    between atoms: _14  and  _15
REMARK    8  A    between atoms: _18  and  _20
REMARK    9  A    between atoms: _20  and  _21
REMARK   10  A    between atoms: _20  and  _23
REMARK   11  A    between atoms: _23  and  _24
REMARK   12  A    between atoms: _30  and  _32
REMARK   13  A    between atoms: _32  and  _33
REMARK   14  A    between atoms: _32  and  _35
REMARK   15  A    between atoms: _35  and  _36
REMARK   16  A    between atoms: _42  and  _44
REMARK   17  A    between atoms: _44  and  _45
REMARK   18  A    between atoms: _44  and  _47
REMARK   19  A    between atoms: _47  and  _48
REMARK   20  A    between atoms: _51  and  _53
REMARK   21  A    between atoms: _53  and  _54
REMARK   22  A    between atoms: _53  and  _56
REMARK   23  A    between atoms: _56  and  _57
REMARK   24  A    between atoms: _62  and  _64
REMARK   25  A    between atoms: _64  and  _65
REMARK   26  A    between atoms: _64  and  _67
REMARK   27  A    between atoms: _67  and  _68
REMARK   28  A    between atoms: _68  and  _69
REMARK   29  A    between atoms: _74  and  _76
REMARK   30  A    between atoms: _76  and  _77
REMARK   31  A    between atoms: _76  and  _79
REMARK   32  A    between atoms: _79  and  _80
REMARK   33  A    between atoms: _83  and  _85
REMARK   34  A    between atoms: _85  and  _86
REMARK   35  A    between atoms: _85  and  _88
REMARK   36  A    between atoms: _88  and  _89
REMARK   37  A    between atoms: _89  and  _90
REMARK   38  A    between atoms: _90  and  _91
REMARK   39  A    between atoms: _91  and  _92
REMARK   40  A    between atoms: _96  and  _98
REMARK   41  A    between atoms: _98  and  _99
REMARK   42  A    between atoms: _98  and  _101
REMARK   43  A    between atoms: _104  and  _106
REMARK   44  A    between atoms: _106  and  _107
REMARK   45  A    between atoms: _106  and  _109
REMARK   46  A    between atoms: _109  and  _110
REMARK   47  A    between atoms: _110  and  _111
REMARK   48  A    between atoms: _111  and  _112
REMARK   49  A    between atoms: _121  and  _123
REMARK   50  A    between atoms: _123  and  _124
REMARK   51  A    between atoms: _123  and  _126
REMARK   52  A    between atoms: _128  and  _130
REMARK   53  A    between atoms: _130  and  _131
REMARK   54  A    between atoms: _130  and  _133
REMARK   55  A    between atoms: _133  and  _134
REMARK   56  A    between atoms: _139  and  _140
REMARK   57  A    between atoms: _142  and  _144
REMARK   58  A    between atoms: _144  and  _145
REMARK   59  A    between atoms: _147  and  _149
REMARK   60  A    between atoms: _149  and  _150
REMARK   61  A    between atoms: _152  and  _154
REMARK   62  A    between atoms: _154  and  _155
REMARK   63  A    between atoms: _154  and  _157
REMARK   64  A    between atoms: _157  and  _158
REMARK   65  A    between atoms: _161  and  _163
REMARK   66  A    between atoms: _163  and  _164
REMARK   67  A    between atoms: _163  and  _166
REMARK   68  A    between atoms: _166  and  _167
REMARK   69  A    between atoms: _167  and  _168
REMARK   70  A    between atoms: _173  and  _175
REMARK   71  A    between atoms: _175  and  _176
REMARK   72  A    between atoms: _175  and  _178
REMARK   73  A    between atoms: _178  and  _179
REMARK   74  A    between atoms: _181  and  _183
REMARK   75  A    between atoms: _183  and  _184
REMARK   76  A    between atoms: _183  and  _186
REMARK   77  A    between atoms: _186  and  _187
REMARK   78  A    between atoms: _197  and  _199
REMARK   79  A    between atoms: _199  and  _200
REMARK   80  A    between atoms: _199  and  _202
REMARK   81  A    between atoms: _202  and  _203
REMARK   82  A    between atoms: _203  and  _204
REMARK   83  A    between atoms: _204  and  _205
REMARK   84  A    between atoms: _205  and  _206
REMARK   85  A    between atoms: _210  and  _212
REMARK   86  A    between atoms: _212  and  _213
REMARK   87  A    between atoms: _212  and  _215
REMARK   88  A    between atoms: _215  and  _216
REMARK   89  A    between atoms: _216  and  _217
REMARK   90  A    between atoms: _217  and  _218
REMARK   91  A    between atoms: _227  and  _229
REMARK   92  A    between atoms: _229  and  _230
REMARK   93  A    between atoms: _232  and  _234
REMARK   94  A    between atoms: _234  and  _235
REMARK   95  A    between atoms: _234  and  _237
REMARK   96  A    between atoms: _237  and  _238
REMARK   97  A    between atoms: _241  and  _243
REMARK   98  A    between atoms: _243  and  _244
REMARK   99  A    between atoms: _243  and  _246
REMARK  100  A    between atoms: _246  and  _247
REMARK  101  A    between atoms: _251  and  _252
REMARK  102  A    between atoms: _257  and  _259
REMARK  103  A    between atoms: _259  and  _260
REMARK  104  A    between atoms: _259  and  _262
REMARK  105  A    between atoms: _262  and  _263
REMARK  106  A    between atoms: _263  and  _264
REMARK  107  A    between atoms: _267  and  _269
REMARK  108  A    between atoms: _269  and  _270
REMARK  109  A    between atoms: _269  and  _272
REMARK  110  A    between atoms: _272  and  _273
REMARK  111  A    between atoms: _278  and  _280
REMARK  112  A    between atoms: _280  and  _281
REMARK  113  A    between atoms: _280  and  _283
REMARK  114  A    between atoms: _283  and  _284
REMARK  115  A    between atoms: _284  and  _285
REMARK  116  A    between atoms: _285  and  _286
REMARK  117  A    between atoms: _286  and  _287
REMARK  118  A    between atoms: _291  and  _293
REMARK  119  A    between atoms: _293  and  _294
REMARK  120  A    between atoms: _293  and  _296
REMARK  121  A    between atoms: _296  and  _297
REMARK  122  A    between atoms: _307  and  _309
REMARK  123  A    between atoms: _309  and  _310
REMARK  124  A    between atoms: _309  and  _312
REMARK  125  A    between atoms: _312  and  _313
REMARK  126  A    between atoms: _319  and  _321
REMARK  127  A    between atoms: _321  and  _322
REMARK  128  A    between atoms: _321  and  _324
REMARK  129  A    between atoms: _324  and  _325
REMARK                            x       y       z     vdW  Elec       q    Type
REMARK                         _______ _______ _______ _____ _____    ______ ____
ROOT
ATOM      1  O   HOH     1      27.375  43.399   6.877  0.00  0.00    +0.000 OA
ENDROOT
TORSDOF 0
REMARK  Name = ../refined-set-2016/3f7g/3f7g_pocket.pdb
REMARK  129 active torsions:
REMARK  status: ('A' for Active; 'I' for Inactive)
REMARK    1  A    between atoms: _1  and  _3
REMARK    2  A    between atoms: _3  and  _4
REMARK    3  A    between atoms: _3  and  _6
REMARK    4  A    between atoms: _9  and  _11
REMARK    5  A    between atoms: _11  and  _12
REMARK    6  A    between atoms: _11  and  _14
REMARK    7  A    between atoms: _14  and  _15
REMARK    8  A    between atoms: _18  and  _20
REMARK    9  A    between atoms: _20  and  _21
REMARK   10  A    between atoms: _20  and  _23
REMARK   11  A    between atoms: _23  and  _24
REMARK   12  A    between atoms: _30  and  _32
REMARK   13  A    between atoms: _32  and  _33
REMARK   14  A    between atoms: _32  and  _35
REMARK   15  A    between atoms: _35  and  _36
REMARK   16  A    between atoms: _42  and  _44
REMARK   17  A    between atoms: _44  and  _45
REMARK   18  A    between atoms: _44  and  _47
REMARK   19  A    between atoms: _47  and  _48
REMARK   20  A    between atoms: _51  and  _53
REMARK   21  A    between atoms: _53  and  _54
REMARK   22  A    between atoms: _53  and  _56
REMARK   23  A    between atoms: _56  and  _57
REMARK   24  A    between atoms: _62  and  _64
REMARK   25  A    between atoms: _64  and  _65
REMARK   26  A    between atoms: _64  and  _67
REMARK   27  A    between atoms: _67  and  _68
REMARK   28  A    between atoms: _68  and  _69
REMARK   29  A    between atoms: _74  and  _76
REMARK   30  A    between atoms: _76  and  _77
REMARK   31  A    between atoms: _76  and  _79
REMARK   32  A    between atoms: _79  and  _80
REMARK   33  A    between atoms: _83  and  _85
REMARK   34  A    between atoms: _85  and  _86
REMARK   35  A    between atoms: _85  and  _88
REMARK   36  A    between atoms: _88  and  _89
REMARK   37  A    between atoms: _89  and  _90
REMARK   38  A    between atoms: _90  and  _91
REMARK   39  A    between atoms: _91  and  _92
REMARK   40  A    between atoms: _96  and  _98
REMARK   41  A    between atoms: _98  and  _99
REMARK   42  A    between atoms: _98  and  _101
REMARK   43  A    between atoms: _104  and  _106
REMARK   44  A    between atoms: _106  and  _107
REMARK   45  A    between atoms: _106  and  _109
REMARK   46  A    between atoms: _109  and  _110
REMARK   47  A    between atoms: _110  and  _111
REMARK   48  A    between atoms: _111  and  _112
REMARK   49  A    between atoms: _121  and  _123
REMARK   50  A    between atoms: _123  and  _124
REMARK   51  A    between atoms: _123  and  _126
REMARK   52  A    between atoms: _128  and  _130
REMARK   53  A    between atoms: _130  and  _131
REMARK   54  A    between atoms: _130  and  _133
REMARK   55  A    between atoms: _133  and  _134
REMARK   56  A    between atoms: _139  and  _140
REMARK   57  A    between atoms: _142  and  _144
REMARK   58  A    between atoms: _144  and  _145
REMARK   59  A    between atoms: _147  and  _149
REMARK   60  A    between atoms: _149  and  _150
REMARK   61  A    between atoms: _152  and  _154
REMARK   62  A    between atoms: _154  and  _155
REMARK   63  A    between atoms: _154  and  _157
REMARK   64  A    between atoms: _157  and  _158
REMARK   65  A    between atoms: _161  and  _163
REMARK   66  A    between atoms: _163  and  _164
REMARK   67  A    between atoms: _163  and  _166
REMARK   68  A    between atoms: _166  and  _167
REMARK   69  A    between atoms: _167  and  _168
REMARK   70  A    between atoms: _173  and  _175
REMARK   71  A    between atoms: _175  and  _176
REMARK   72  A    between atoms: _175  and  _178
REMARK   73  A    between atoms: _178  and  _179
REMARK   74  A    between atoms: _181  and  _183
REMARK   75  A    between atoms: _183  and  _184
REMARK   76  A    between atoms: _183  and  _186
REMARK   77  A    between atoms: _186  and  _187
REMARK   78  A    between atoms: _197  and  _199
REMARK   79  A    between atoms: _199  and  _200
REMARK   80  A    between atoms: _199  and  _202
REMARK   81  A    between atoms: _202  and  _203
REMARK   82  A    between atoms: _203  and  _204
REMARK   83  A    between atoms: _204  and  _205
REMARK   84  A    between atoms: _205  and  _206
REMARK   85  A    between atoms: _210  and  _212
REMARK   86  A    between atoms: _212  and  _213
REMARK   87  A    between atoms: _212  and  _215
REMARK   88  A    between atoms: _215  and  _216
REMARK   89  A    between atoms: _216  and  _217
REMARK   90  A    between atoms: _217  and  _218
REMARK   91  A    between atoms: _227  and  _229
REMARK   92  A    between atoms: _229  and  _230
REMARK   93  A    between atoms: _232  and  _234
REMARK   94  A    between atoms: _234  and  _235
REMARK   95  A    between atoms: _234  and  _237
REMARK   96  A    between atoms: _237  and  _238
REMARK   97  A    between atoms: _241  and  _243
REMARK   98  A    between atoms: _243  and  _244
REMARK   99  A    between atoms: _243  and  _246
REMARK  100  A    between atoms: _246  and  _247
REMARK  101  A    between atoms: _251  and  _252
REMARK  102  A    between atoms: _257  and  _259
REMARK  103  A    between atoms: _259  and  _260
REMARK  104  A    between atoms: _259  and  _262
REMARK  105  A    between atoms: _262  and  _263
REMARK  106  A    between atoms: _263  and  _264
REMARK  107  A    between atoms: _267  and  _269
REMARK  108  A    between atoms: _269  and  _270
REMARK  109  A    between atoms: _269  and  _272
REMARK  110  A    between atoms: _272  and  _273
REMARK  111  A    between atoms: _278  and  _280
REMARK  112  A    between atoms: _280  and  _281
REMARK  113  A    between atoms: _280  and  _283
REMARK  114  A    between atoms: _283  and  _284
REMARK  115  A    between atoms: _284  and  _285
REMARK  116  A    between atoms: _285  and  _286
REMARK  117  A    between atoms: _286  and  _287
REMARK  118  A    between atoms: _291  and  _293
REMARK  119  A    between atoms: _293  and  _294
REMARK  120  A    between atoms: _293  and  _296
REMARK  121  A    between atoms: _296  and  _297
REMARK  122  A    between atoms: _307  and  _309
REMARK  123  A    between atoms: _309  and  _310
REMARK  124  A    between atoms: _309  and  _312
REMARK  125  A    between atoms: _312  and  _313
REMARK  126  A    between atoms: _319  and  _321
REMARK  127  A    between atoms: _321  and  _322
REMARK  128  A    between atoms: _321  and  _324
REMARK  129  A    between atoms: _324  and  _325
REMARK                            x       y       z     vdW  Elec       q    Type
REMARK                         _______ _______ _______ _____ _____    ______ ____
ROOT
ATOM      1  O   HOH     1      22.770  48.659 -11.342  0.00  0.00    +0.000 OA
ENDROOT
TORSDOF 0
