REMARK  Name = ../refined-set-2016/4b2i/4b2i_pocket.pdb
REMARK  105 active torsions:
REMARK  status: ('A' for Active; 'I' for Inactive)
REMARK    1  A    between atoms: _1  and  _3
REMARK    2  A    between atoms: _3  and  _4
REMARK    3  A    between atoms: _3  and  _6
REMARK    4  A    between atoms: _9  and  _11
REMARK    5  A    between atoms: _11  and  _12
REMARK    6  A    between atoms: _11  and  _14
REMARK    7  A    between atoms: _14  and  _15
REMARK    8  A    between atoms: _15  and  _16
REMARK    9  A    between atoms: _18  and  _20
REMARK   10  A    between atoms: _20  and  _21
REMARK   11  A    between atoms: _20  and  _23
REMARK   12  A    between atoms: _23  and  _24
REMARK   13  A    between atoms: _34  and  _36
REMARK   14  A    between atoms: _36  and  _37
REMARK   15  A    between atoms: _36  and  _39
REMARK   16  A    between atoms: _39  and  _40
REMARK   17  A    between atoms: _43  and  _45
REMARK   18  A    between atoms: _45  and  _46
REMARK   19  A    between atoms: _45  and  _48
REMARK   20  A    between atoms: _48  and  _49
REMARK   21  A    between atoms: _52  and  _54
REMARK   22  A    between atoms: _54  and  _55
REMARK   23  A    between atoms: _54  and  _57
REMARK   24  A    between atoms: _57  and  _58
REMARK   25  A    between atoms: _61  and  _63
REMARK   26  A    between atoms: _63  and  _64
REMARK   27  A    between atoms: _67  and  _69
REMARK   28  A    between atoms: _69  and  _70
REMARK   29  A    between atoms: _69  and  _72
REMARK   30  A    between atoms: _72  and  _73
REMARK   31  A    between atoms: _78  and  _79
REMARK   32  A    between atoms: _81  and  _83
REMARK   33  A    between atoms: _83  and  _84
REMARK   34  A    between atoms: _87  and  _89
REMARK   35  A    between atoms: _89  and  _90
REMARK   36  A    between atoms: _89  and  _92
REMARK   37  A    between atoms: _92  and  _93
REMARK   38  A    between atoms: _93  and  _94
REMARK   39  A    between atoms: _94  and  _95
REMARK   40  A    between atoms: _104  and  _106
REMARK   41  A    between atoms: _106  and  _107
REMARK   42  A    between atoms: _106  and  _109
REMARK   43  A    between atoms: _109  and  _110
REMARK   44  A    between atoms: _115  and  _117
REMARK   45  A    between atoms: _117  and  _118
REMARK   46  A    between atoms: _117  and  _120
REMARK   47  A    between atoms: _120  and  _121
REMARK   48  A    between atoms: _121  and  _122
REMARK   49  A    between atoms: _127  and  _129
REMARK   50  A    between atoms: _129  and  _130
REMARK   51  A    between atoms: _129  and  _132
REMARK   52  A    between atoms: _132  and  _133
REMARK   53  A    between atoms: _133  and  _134
REMARK   54  A    between atoms: _136  and  _138
REMARK   55  A    between atoms: _138  and  _139
REMARK   56  A    between atoms: _138  and  _141
REMARK   57  A    between atoms: _141  and  _142
REMARK   58  A    between atoms: _145  and  _147
REMARK   59  A    between atoms: _147  and  _148
REMARK   60  A    between atoms: _147  and  _150
REMARK   61  A    between atoms: _150  and  _151
REMARK   62  A    between atoms: _154  and  _156
REMARK   63  A    between atoms: _156  and  _157
REMARK   64  A    between atoms: _156  and  _159
REMARK   65  A    between atoms: _162  and  _164
REMARK   66  A    between atoms: _164  and  _165
REMARK   67  A    between atoms: _164  and  _167
REMARK   68  A    between atoms: _167  and  _168
REMARK   69  A    between atoms: _168  and  _169
REMARK   70  A    between atoms: _174  and  _176
REMARK   71  A    between atoms: _176  and  _177
REMARK   72  A    between atoms: _176  and  _179
REMARK   73  A    between atoms: _179  and  _180
REMARK   74  A    between atoms: _180  and  _181
REMARK   75  A    between atoms: _186  and  _188
REMARK   76  A    between atoms: _188  and  _189
REMARK   77  A    between atoms: _192  and  _194
REMARK   78  A    between atoms: _194  and  _195
REMARK   79  A    between atoms: _194  and  _197
REMARK   80  A    between atoms: _197  and  _198
REMARK   81  A    between atoms: _198  and  _199
REMARK   82  A    between atoms: _202  and  _204
REMARK   83  A    between atoms: _204  and  _205
REMARK   84  A    between atoms: _204  and  _207
REMARK   85  A    between atoms: _207  and  _208
REMARK   86  A    between atoms: _211  and  _213
REMARK   87  A    between atoms: _213  and  _214
REMARK   88  A    between atoms: _213  and  _216
REMARK   89  A    between atoms: _216  and  _217
REMARK   90  A    between atoms: _217  and  _218
REMARK   91  A    between atoms: _220  and  _222
REMARK   92  A    between atoms: _222  and  _223
REMARK   93  A    between atoms: _222  and  _225
REMARK   94  A    between atoms: _225  and  _226
REMARK   95  A    between atoms: _229  and  _231
REMARK   96  A    between atoms: _231  and  _232
REMARK   97  A    between atoms: _231  and  _234
REMARK   98  A    between atoms: _234  and  _235
REMARK   99  A    between atoms: _238  and  _240
REMARK  100  A    between atoms: _240  and  _241
REMARK  101  A    between atoms: _240  and  _243
REMARK  102  A    between atoms: _243  and  _244
REMARK  103  A    between atoms: _247  and  _249
REMARK  104  A    between atoms: _249  and  _250
REMARK  105  A    between atoms: _249  and  _252
REMARK                            x       y       z     vdW  Elec       q    Type
REMARK                         _______ _______ _______ _____ _____    ______ ____
ROOT
ATOM      1  CA  TRP A   3      16.291   1.696   0.333  0.00  0.00    +0.153 C 
ENDROOT
BRANCH   1   3
ATOM      2  C   MET A   2      15.474   2.191  -1.928  0.00  0.00    +0.241 C 
ATOM      3  N   TRP A   3      16.474   2.044  -1.067  0.00  0.00    -0.297 N 
ATOM      4  H   TRP A   3      17.444   2.186  -1.414  0.00  0.00    +0.150 HD
ATOM      5  O   MET A   2      14.279   2.204  -1.583  0.00  0.00    -0.273 OA
BRANCH   2   6
ATOM      6  CA  MET A   2      15.845   2.339  -3.392  0.00  0.00    +0.149 C 
BRANCH   6   8
ATOM      7  C   VAL A   1      15.422   0.534  -4.957  0.00  0.00    +0.238 C 
ATOM      8  N   MET A   2      14.954   1.465  -4.134  0.00  0.00    -0.297 N 
ATOM      9  H   MET A   2      13.926   1.571  -4.018  0.00  0.00    +0.150 HD
ATOM     10  O   VAL A   1      16.607   0.495  -5.320  0.00  0.00    -0.274 OA
BRANCH   7  11
ATOM     11  CA  VAL A   1      14.431  -0.504  -5.438  0.00  0.00    +0.145 C 
BRANCH  11  12
ATOM     12  CB  VAL A   1      14.556  -1.722  -4.498  0.00  0.00    +0.025 C 
ATOM     13  CG2 VAL A   1      14.182  -1.357  -3.059  0.00  0.00    +0.002 C 
ATOM     14  CG1 VAL A   1      13.688  -2.848  -5.000  0.00  0.00    +0.002 C 
ENDBRANCH  11  12
BRANCH  11  15
ATOM     15  N   VAL A   1      14.735  -0.913  -6.797  0.00  0.00    -0.238 NA
ATOM     16  H   VAL A   1      15.694  -1.252  -7.011  0.00  0.00    +0.142 HD
ENDBRANCH  11  15
ENDBRANCH   7  11
ENDBRANCH   6   8
BRANCH   6  17
ATOM     17  CB  MET A   2      15.700   3.787  -3.854  0.00  0.00    +0.041 C 
BRANCH  17  18
ATOM     18  CG  MET A   2      16.051   3.962  -5.343  0.00  0.00    +0.060 C 
BRANCH  18  19
ATOM     19  SD  MET A   2      16.100   5.673  -5.908  0.00  0.00    -0.139 S 
ATOM     20  CE  MET A   2      17.602   6.239  -5.136  0.00  0.00    +0.069 C 
ENDBRANCH  18  19
ENDBRANCH  17  18
ENDBRANCH   6  17
ENDBRANCH   2   6
ENDBRANCH   1   3
BRANCH   1  21
ATOM     21  C   TRP A   3      17.071   2.649   1.229  0.00  0.00    +0.241 C 
ATOM     22  N   ILE A   4      16.371   3.391   2.079  0.00  0.00    -0.297 N 
ATOM     23  H   ILE A   4      15.333   3.339   2.048  0.00  0.00    +0.150 HD
ATOM     24  O   TRP A   3      18.313   2.709   1.142  0.00  0.00    -0.273 OA
BRANCH  22  25
ATOM     25  CA  ILE A   4      16.996   4.274   3.051  0.00  0.00    +0.149 C 
BRANCH  25  26
ATOM     26  C   ILE A   4      16.866   3.629   4.423  0.00  0.00    +0.241 C 
ATOM     27  N   ASP A   5      17.998   3.367   5.064  0.00  0.00    -0.298 N 
ATOM     28  H   ASP A   5      18.882   3.732   4.654  0.00  0.00    +0.150 HD
ATOM     29  O   ILE A   4      15.760   3.357   4.888  0.00  0.00    -0.273 OA
BRANCH  27  30
ATOM     30  CA  ASP A   5      18.089   2.604   6.301  0.00  0.00    +0.148 C 
BRANCH  30  31
ATOM     31  C   ASP A   5      18.528   3.568   7.401  0.00  0.00    +0.227 C 
ATOM     32  O   ASP A   5      19.593   4.187   7.289  0.00  0.00    -0.286 OA
ENDBRANCH  30  31
BRANCH  30  33
ATOM     33  CB  ASP A   5      19.149   1.516   6.059  0.00  0.00    +0.142 C 
BRANCH  33  34
ATOM     34  CG  ASP A   5      19.280   0.509   7.188  0.00  0.00    +0.367 C 
ATOM     35  OD2 ASP A   5      18.580   0.602   8.211  0.00  0.00    -0.246 OA
ATOM     36  OD1 ASP A   5      20.137  -0.401   7.046  0.00  0.00    -0.246 OA
ENDBRANCH  33  34
ENDBRANCH  30  33
ENDBRANCH  27  30
ENDBRANCH  25  26
BRANCH  25  37
ATOM     37  CB  ILE A   4      16.338   5.669   3.055  0.00  0.00    +0.027 C 
ATOM     38  CG2 ILE A   4      16.910   6.522   4.180  0.00  0.00    +0.002 C 
BRANCH  37  39
ATOM     39  CG1 ILE A   4      16.507   6.356   1.694  0.00  0.00    +0.002 C 
ATOM     40  CD1 ILE A   4      15.732   7.652   1.586  0.00  0.00    +0.000 C 
ENDBRANCH  37  39
ENDBRANCH  25  37
ENDBRANCH  22  25
ENDBRANCH   1  21
BRANCH   1  41
ATOM     41  CB  TRP A   3      16.782   0.262   0.567  0.00  0.00    +0.057 C 
BRANCH  41  42
ATOM     42  CG  TRP A   3      16.459  -0.293   1.903  0.00  0.00    -0.002 A 
ATOM     43  CD1 TRP A   3      16.726   0.261   3.121  0.00  0.00    +0.068 A 
ATOM     44  NE1 TRP A   3      16.259  -0.565   4.122  0.00  0.00    -0.352 N 
ATOM     45  HE1 TRP A   3      16.321  -0.373   5.142  0.00  0.00    +0.166 HD
ATOM     46  CE2 TRP A   3      15.701  -1.679   3.553  0.00  0.00    +0.056 A 
ATOM     47  CZ2 TRP A   3      15.105  -2.791   4.146  0.00  0.00    +0.017 A 
ATOM     48  CH2 TRP A   3      14.629  -3.768   3.318  0.00  0.00    +0.001 A 
ATOM     49  CZ3 TRP A   3      14.729  -3.661   1.926  0.00  0.00    +0.000 A 
ATOM     50  CE3 TRP A   3      15.314  -2.555   1.337  0.00  0.00    +0.001 A 
ATOM     51  CD2 TRP A   3      15.811  -1.540   2.158  0.00  0.00    +0.013 A 
ENDBRANCH  41  42
ENDBRANCH   1  41
TORSDOF 20
REMARK  Name = ../refined-set-2016/4b2i/4b2i_pocket.pdb
REMARK  105 active torsions:
REMARK  status: ('A' for Active; 'I' for Inactive)
REMARK    1  A    between atoms: _1  and  _3
REMARK    2  A    between atoms: _3  and  _4
REMARK    3  A    between atoms: _3  and  _6
REMARK    4  A    between atoms: _9  and  _11
REMARK    5  A    between atoms: _11  and  _12
REMARK    6  A    between atoms: _11  and  _14
REMARK    7  A    between atoms: _14  and  _15
REMARK    8  A    between atoms: _15  and  _16
REMARK    9  A    between atoms: _18  and  _20
REMARK   10  A    between atoms: _20  and  _21
REMARK   11  A    between atoms: _20  and  _23
REMARK   12  A    between atoms: _23  and  _24
REMARK   13  A    between atoms: _34  and  _36
REMARK   14  A    between atoms: _36  and  _37
REMARK   15  A    between atoms: _36  and  _39
REMARK   16  A    between atoms: _39  and  _40
REMARK   17  A    between atoms: _43  and  _45
REMARK   18  A    between atoms: _45  and  _46
REMARK   19  A    between atoms: _45  and  _48
REMARK   20  A    between atoms: _48  and  _49
REMARK   21  A    between atoms: _52  and  _54
REMARK   22  A    between atoms: _54  and  _55
REMARK   23  A    between atoms: _54  and  _57
REMARK   24  A    between atoms: _57  and  _58
REMARK   25  A    between atoms: _61  and  _63
REMARK   26  A    between atoms: _63  and  _64
REMARK   27  A    between atoms: _67  and  _69
REMARK   28  A    between atoms: _69  and  _70
REMARK   29  A    between atoms: _69  and  _72
REMARK   30  A    between atoms: _72  and  _73
REMARK   31  A    between atoms: _78  and  _79
REMARK   32  A    between atoms: _81  and  _83
REMARK   33  A    between atoms: _83  and  _84
REMARK   34  A    between atoms: _87  and  _89
REMARK   35  A    between atoms: _89  and  _90
REMARK   36  A    between atoms: _89  and  _92
REMARK   37  A    between atoms: _92  and  _93
REMARK   38  A    between atoms: _93  and  _94
REMARK   39  A    between atoms: _94  and  _95
REMARK   40  A    between atoms: _104  and  _106
REMARK   41  A    between atoms: _106  and  _107
REMARK   42  A    between atoms: _106  and  _109
REMARK   43  A    between atoms: _109  and  _110
REMARK   44  A    between atoms: _115  and  _117
REMARK   45  A    between atoms: _117  and  _118
REMARK   46  A    between atoms: _117  and  _120
REMARK   47  A    between atoms: _120  and  _121
REMARK   48  A    between atoms: _121  and  _122
REMARK   49  A    between atoms: _127  and  _129
REMARK   50  A    between atoms: _129  and  _130
REMARK   51  A    between atoms: _129  and  _132
REMARK   52  A    between atoms: _132  and  _133
REMARK   53  A    between atoms: _133  and  _134
REMARK   54  A    between atoms: _136  and  _138
REMARK   55  A    between atoms: _138  and  _139
REMARK   56  A    between atoms: _138  and  _141
REMARK   57  A    between atoms: _141  and  _142
REMARK   58  A    between atoms: _145  and  _147
REMARK   59  A    between atoms: _147  and  _148
REMARK   60  A    between atoms: _147  and  _150
REMARK   61  A    between atoms: _150  and  _151
REMARK   62  A    between atoms: _154  and  _156
REMARK   63  A    between atoms: _156  and  _157
REMARK   64  A    between atoms: _156  and  _159
REMARK   65  A    between atoms: _162  and  _164
REMARK   66  A    between atoms: _164  and  _165
REMARK   67  A    between atoms: _164  and  _167
REMARK   68  A    between atoms: _167  and  _168
REMARK   69  A    between atoms: _168  and  _169
REMARK   70  A    between atoms: _174  and  _176
REMARK   71  A    between atoms: _176  and  _177
REMARK   72  A    between atoms: _176  and  _179
REMARK   73  A    between atoms: _179  and  _180
REMARK   74  A    between atoms: _180  and  _181
REMARK   75  A    between atoms: _186  and  _188
REMARK   76  A    between atoms: _188  and  _189
REMARK   77  A    between atoms: _192  and  _194
REMARK   78  A    between atoms: _194  and  _195
REMARK   79  A    between atoms: _194  and  _197
REMARK   80  A    between atoms: _197  and  _198
REMARK   81  A    between atoms: _198  and  _199
REMARK   82  A    between atoms: _202  and  _204
REMARK   83  A    between atoms: _204  and  _205
REMARK   84  A    between atoms: _204  and  _207
REMARK   85  A    between atoms: _207  and  _208
REMARK   86  A    between atoms: _211  and  _213
REMARK   87  A    between atoms: _213  and  _214
REMARK   88  A    between atoms: _213  and  _216
REMARK   89  A    between atoms: _216  and  _217
REMARK   90  A    between atoms: _217  and  _218
REMARK   91  A    between atoms: _220  and  _222
REMARK   92  A    between atoms: _222  and  _223
REMARK   93  A    between atoms: _222  and  _225
REMARK   94  A    between atoms: _225  and  _226
REMARK   95  A    between atoms: _229  and  _231
REMARK   96  A    between atoms: _231  and  _232
REMARK   97  A    between atoms: _231  and  _234
REMARK   98  A    between atoms: _234  and  _235
REMARK   99  A    between atoms: _238  and  _240
REMARK  100  A    between atoms: _240  and  _241
REMARK  101  A    between atoms: _240  and  _243
REMARK  102  A    between atoms: _243  and  _244
REMARK  103  A    between atoms: _247  and  _249
REMARK  104  A    between atoms: _249  and  _250
REMARK  105  A    between atoms: _249  and  _252
REMARK                            x       y       z     vdW  Elec       q    Type
REMARK                         _______ _______ _______ _____ _____    ______ ____
ROOT
ATOM      1  CA  TYR A   3      21.125   1.396  -0.582  0.00  0.00    +0.153 C 
ENDROOT
BRANCH   1   3
ATOM      2  C   ALA A   2      20.036   1.280  -2.781  0.00  0.00    +0.241 C 
ATOM      3  N   TYR A   3      21.131   1.257  -2.032  0.00  0.00    -0.297 N 
ATOM      4  H   TYR A   3      22.047   1.132  -2.508  0.00  0.00    +0.150 HD
ATOM      5  O   ALA A   2      18.924   1.509  -2.324  0.00  0.00    -0.273 OA
BRANCH   2   6
ATOM      6  CA  ALA A   2      20.210   0.974  -4.265  0.00  0.00    +0.149 C 
ATOM      7  CB  ALA A   2      19.923   2.186  -5.107  0.00  0.00    +0.031 C 
BRANCH   6  10
ATOM      8  C   ILE A   1      19.608  -1.365  -4.367  0.00  0.00    +0.238 C 
ATOM      9  O   ILE A   1      20.738  -1.722  -3.989  0.00  0.00    -0.274 OA
ATOM     10  N   ALA A   2      19.293  -0.100  -4.597  0.00  0.00    -0.297 N 
ATOM     11  H   ALA A   2      18.372   0.128  -5.023  0.00  0.00    +0.150 HD
BRANCH   8  12
ATOM     12  CA  ILE A   1      18.529  -2.404  -4.637  0.00  0.00    +0.145 C 
BRANCH  12  13
ATOM     13  N   ILE A   1      18.926  -3.140  -5.834  0.00  0.00    -0.238 NA
ATOM     14  H   ILE A   1      19.760  -3.760  -5.791  0.00  0.00    +0.142 HD
ENDBRANCH  12  13
BRANCH  12  15
ATOM     15  CB  ILE A   1      18.374  -3.321  -3.413  0.00  0.00    +0.025 C 
ATOM     16  CG2 ILE A   1      18.074  -2.481  -2.163  0.00  0.00    +0.002 C 
BRANCH  15  17
ATOM     17  CG1 ILE A   1      17.285  -4.371  -3.674  0.00  0.00    +0.002 C 
ATOM     18  CD1 ILE A   1      17.240  -5.486  -2.647  0.00  0.00    +0.000 C 
ENDBRANCH  15  17
ENDBRANCH  12  15
ENDBRANCH   8  12
ENDBRANCH   6  10
ENDBRANCH   2   6
ENDBRANCH   1   3
BRANCH   1  19
ATOM     19  C   TYR A   3      21.741   2.706  -0.105  0.00  0.00    +0.241 C 
ATOM     20  N   ALA A   4      21.103   3.355   0.861  0.00  0.00    -0.297 N 
ATOM     21  H   ALA A   4      20.163   3.023   1.158  0.00  0.00    +0.150 HD
ATOM     22  O   TYR A   3      22.796   3.127  -0.597  0.00  0.00    -0.273 OA
BRANCH  20  23
ATOM     23  CA  ALA A   4      21.682   4.520   1.518  0.00  0.00    +0.149 C 
ATOM     24  CB  ALA A   4      21.126   5.804   0.935  0.00  0.00    +0.031 C 
BRANCH  23  25
ATOM     25  C   ALA A   4      21.408   4.465   3.010  0.00  0.00    +0.241 C 
ATOM     26  N   ARG A   5      22.454   4.617   3.806  0.00  0.00    -0.298 N 
ATOM     27  H   ARG A   5      23.406   4.614   3.387  0.00  0.00    +0.150 HD
ATOM     28  O   ALA A   4      20.262   4.287   3.435  0.00  0.00    -0.273 OA
BRANCH  26  29
ATOM     29  CA  ARG A   5      22.325   4.787   5.233  0.00  0.00    +0.137 C 
BRANCH  29  30
ATOM     30  C   ARG A   5      22.015   6.256   5.505  0.00  0.00    +0.227 C 
ATOM     31  O   ARG A   5      22.665   7.144   4.946  0.00  0.00    -0.286 OA
ENDBRANCH  29  30
BRANCH  29  32
ATOM     32  CB  ARG A   5      23.644   4.394   5.904  0.00  0.00    +0.031 C 
BRANCH  32  33
ATOM     33  CG  ARG A   5      23.668   4.692   7.390  0.00  0.00    +0.045 C 
BRANCH  33  34
ATOM     34  CD  ARG A   5      22.825   3.701   8.171  0.00  0.00    +0.174 C 
BRANCH  34  35
ATOM     35  NE  ARG A   5      22.227   4.331   9.346  0.00  0.00    -0.265 N 
ATOM     36  CZ  ARG A   5      22.911   4.672  10.434  0.00  0.00    +0.342 C 
ATOM     37  NH2 ARG A   5      22.290   5.250  11.455  0.00  0.00    -0.292 N 
ATOM     38 HH21 ARG A   5      22.825   5.517  12.306  0.00  0.00    +0.255 HD
ATOM     39 HH22 ARG A   5      21.268   5.436  11.404  0.00  0.00    +0.255 HD
ATOM     40  NH1 ARG A   5      24.219   4.438  10.496  0.00  0.00    -0.292 N 
ATOM     41 HH11 ARG A   5      24.755   4.704  11.346  0.00  0.00    +0.255 HD
ATOM     42 HH12 ARG A   5      24.705   3.989   9.694  0.00  0.00    +0.255 HD
ATOM     43  HE  ARG A   5      21.205   4.524   9.330  0.00  0.00    +0.259 HD
ENDBRANCH  34  35
ENDBRANCH  33  34
ENDBRANCH  32  33
ENDBRANCH  29  32
ENDBRANCH  26  29
ENDBRANCH  23  25
ENDBRANCH  20  23
ENDBRANCH   1  19
BRANCH   1  44
ATOM     44  CB  TYR A   3      21.902   0.231   0.029  0.00  0.00    +0.055 C 
BRANCH  44  45
ATOM     45  CG  TYR A   3      21.985   0.287   1.529  0.00  0.00    -0.020 A 
ATOM     46  CD2 TYR A   3      20.939  -0.182   2.314  0.00  0.00    -0.001 A 
ATOM     47  CE2 TYR A   3      21.006  -0.127   3.689  0.00  0.00    +0.036 A 
ATOM     48  CZ  TYR A   3      22.125   0.411   4.295  0.00  0.00    +0.134 A 
ATOM     49  CE1 TYR A   3      23.180   0.881   3.535  0.00  0.00    +0.036 A 
ATOM     50  CD1 TYR A   3      23.101   0.823   2.163  0.00  0.00    -0.001 A 
BRANCH  48  51
ATOM     51  OH  TYR A   3      22.187   0.466   5.666  0.00  0.00    -0.506 OA
ATOM     52  HH  TYR A   3      21.354   0.091   6.048  0.00  0.00    +0.292 HD
ENDBRANCH  48  51
ENDBRANCH  44  45
ENDBRANCH   1  44
TORSDOF 19
REMARK  Name = ../refined-set-2016/4b2i/4b2i_pocket.pdb
REMARK  105 active torsions:
REMARK  status: ('A' for Active; 'I' for Inactive)
REMARK    1  A    between atoms: _1  and  _3
REMARK    2  A    between atoms: _3  and  _4
REMARK    3  A    between atoms: _3  and  _6
REMARK    4  A    between atoms: _9  and  _11
REMARK    5  A    between atoms: _11  and  _12
REMARK    6  A    between atoms: _11  and  _14
REMARK    7  A    between atoms: _14  and  _15
REMARK    8  A    between atoms: _15  and  _16
REMARK    9  A    between atoms: _18  and  _20
REMARK   10  A    between atoms: _20  and  _21
REMARK   11  A    between atoms: _20  and  _23
REMARK   12  A    between atoms: _23  and  _24
REMARK   13  A    between atoms: _34  and  _36
REMARK   14  A    between atoms: _36  and  _37
REMARK   15  A    between atoms: _36  and  _39
REMARK   16  A    between atoms: _39  and  _40
REMARK   17  A    between atoms: _43  and  _45
REMARK   18  A    between atoms: _45  and  _46
REMARK   19  A    between atoms: _45  and  _48
REMARK   20  A    between atoms: _48  and  _49
REMARK   21  A    between atoms: _52  and  _54
REMARK   22  A    between atoms: _54  and  _55
REMARK   23  A    between atoms: _54  and  _57
REMARK   24  A    between atoms: _57  and  _58
REMARK   25  A    between atoms: _61  and  _63
REMARK   26  A    between atoms: _63  and  _64
REMARK   27  A    between atoms: _67  and  _69
REMARK   28  A    between atoms: _69  and  _70
REMARK   29  A    between atoms: _69  and  _72
REMARK   30  A    between atoms: _72  and  _73
REMARK   31  A    between atoms: _78  and  _79
REMARK   32  A    between atoms: _81  and  _83
REMARK   33  A    between atoms: _83  and  _84
REMARK   34  A    between atoms: _87  and  _89
REMARK   35  A    between atoms: _89  and  _90
REMARK   36  A    between atoms: _89  and  _92
REMARK   37  A    between atoms: _92  and  _93
REMARK   38  A    between atoms: _93  and  _94
REMARK   39  A    between atoms: _94  and  _95
REMARK   40  A    between atoms: _104  and  _106
REMARK   41  A    between atoms: _106  and  _107
REMARK   42  A    between atoms: _106  and  _109
REMARK   43  A    between atoms: _109  and  _110
REMARK   44  A    between atoms: _115  and  _117
REMARK   45  A    between atoms: _117  and  _118
REMARK   46  A    between atoms: _117  and  _120
REMARK   47  A    between atoms: _120  and  _121
REMARK   48  A    between atoms: _121  and  _122
REMARK   49  A    between atoms: _127  and  _129
REMARK   50  A    between atoms: _129  and  _130
REMARK   51  A    between atoms: _129  and  _132
REMARK   52  A    between atoms: _132  and  _133
REMARK   53  A    between atoms: _133  and  _134
REMARK   54  A    between atoms: _136  and  _138
REMARK   55  A    between atoms: _138  and  _139
REMARK   56  A    between atoms: _138  and  _141
REMARK   57  A    between atoms: _141  and  _142
REMARK   58  A    between atoms: _145  and  _147
REMARK   59  A    between atoms: _147  and  _148
REMARK   60  A    between atoms: _147  and  _150
REMARK   61  A    between atoms: _150  and  _151
REMARK   62  A    between atoms: _154  and  _156
REMARK   63  A    between atoms: _156  and  _157
REMARK   64  A    between atoms: _156  and  _159
REMARK   65  A    between atoms: _162  and  _164
REMARK   66  A    between atoms: _164  and  _165
REMARK   67  A    between atoms: _164  and  _167
REMARK   68  A    between atoms: _167  and  _168
REMARK   69  A    between atoms: _168  and  _169
REMARK   70  A    between atoms: _174  and  _176
REMARK   71  A    between atoms: _176  and  _177
REMARK   72  A    between atoms: _176  and  _179
REMARK   73  A    between atoms: _179  and  _180
REMARK   74  A    between atoms: _180  and  _181
REMARK   75  A    between atoms: _186  and  _188
REMARK   76  A    between atoms: _188  and  _189
REMARK   77  A    between atoms: _192  and  _194
REMARK   78  A    between atoms: _194  and  _195
REMARK   79  A    between atoms: _194  and  _197
REMARK   80  A    between atoms: _197  and  _198
REMARK   81  A    between atoms: _198  and  _199
REMARK   82  A    between atoms: _202  and  _204
REMARK   83  A    between atoms: _204  and  _205
REMARK   84  A    between atoms: _204  and  _207
REMARK   85  A    between atoms: _207  and  _208
REMARK   86  A    between atoms: _211  and  _213
REMARK   87  A    between atoms: _213  and  _214
REMARK   88  A    between atoms: _213  and  _216
REMARK   89  A    between atoms: _216  and  _217
REMARK   90  A    between atoms: _217  and  _218
REMARK   91  A    between atoms: _220  and  _222
REMARK   92  A    between atoms: _222  and  _223
REMARK   93  A    between atoms: _222  and  _225
REMARK   94  A    between atoms: _225  and  _226
REMARK   95  A    between atoms: _229  and  _231
REMARK   96  A    between atoms: _231  and  _232
REMARK   97  A    between atoms: _231  and  _234
REMARK   98  A    between atoms: _234  and  _235
REMARK   99  A    between atoms: _238  and  _240
REMARK  100  A    between atoms: _240  and  _241
REMARK  101  A    between atoms: _240  and  _243
REMARK  102  A    between atoms: _243  and  _244
REMARK  103  A    between atoms: _247  and  _249
REMARK  104  A    between atoms: _249  and  _250
REMARK  105  A    between atoms: _249  and  _252
REMARK                            x       y       z     vdW  Elec       q    Type
REMARK                         _______ _______ _______ _____ _____    ______ ____
ROOT
ATOM      1  CA  GLN A   7      15.382  14.808  -2.123  0.00  0.00    +0.149 C 
ENDROOT
BRANCH   1   3
ATOM      2  C   VAL A   6      14.786  12.560  -1.425  0.00  0.00    +0.241 C 
ATOM      3  N   GLN A   7      15.230  13.771  -1.109  0.00  0.00    -0.297 N 
ATOM      4  H   GLN A   7      15.474  13.984  -0.121  0.00  0.00    +0.150 HD
ATOM      5  O   VAL A   6      14.411  12.262  -2.559  0.00  0.00    -0.273 OA
BRANCH   2   6
ATOM      6  CA  VAL A   6      14.795  11.538  -0.301  0.00  0.00    +0.149 C 
BRANCH   6   8
ATOM      7  C   LEU A   5      17.197  11.302  -0.081  0.00  0.00    +0.241 C 
ATOM      8  N   VAL A   6      16.036  11.658   0.454  0.00  0.00    -0.297 N 
ATOM      9  H   VAL A   6      16.011  12.028   1.426  0.00  0.00    +0.150 HD
ATOM     10  O   LEU A   5      17.291  10.837  -1.215  0.00  0.00    -0.273 OA
BRANCH   7  11
ATOM     11  CA  LEU A   5      18.444  11.496   0.781  0.00  0.00    +0.149 C 
BRANCH  11  13
ATOM     12  C   LEU A   4      18.313  13.901   1.045  0.00  0.00    +0.241 C 
ATOM     13  N   LEU A   5      18.384  12.699   1.606  0.00  0.00    -0.297 N 
ATOM     14  H   LEU A   5      18.397  12.614   2.642  0.00  0.00    +0.150 HD
ATOM     15  O   LEU A   4      18.253  14.060  -0.183  0.00  0.00    -0.273 OA
BRANCH  12  16
ATOM     16  CA  LEU A   4      18.280  15.089   2.007  0.00  0.00    +0.149 C 
BRANCH  16  18
ATOM     17  C   MET A   3      16.148  14.532   3.050  0.00  0.00    +0.241 C 
ATOM     18  N   LEU A   4      17.444  14.810   3.169  0.00  0.00    -0.297 N 
ATOM     19  H   LEU A   4      17.872  14.829   4.117  0.00  0.00    +0.150 HD
ATOM     20  O   MET A   3      15.574  14.495   1.956  0.00  0.00    -0.273 OA
BRANCH  17  21
ATOM     21  CA  MET A   3      15.388  14.205   4.342  0.00  0.00    +0.149 C 
BRANCH  21  23
ATOM     22  C   GLN A   2      16.479  12.101   4.827  0.00  0.00    +0.241 C 
ATOM     23  N   MET A   3      16.170  13.338   5.203  0.00  0.00    -0.297 N 
ATOM     24  H   MET A   3      16.493  13.689   6.127  0.00  0.00    +0.150 HD
ATOM     25  O   GLN A   2      16.100  11.614   3.762  0.00  0.00    -0.273 OA
BRANCH  22  26
ATOM     26  CA  GLN A   2      17.360  11.305   5.786  0.00  0.00    +0.149 C 
BRANCH  26  28
ATOM     27  C   HIS A   1      19.364  12.658   5.475  0.00  0.00    +0.239 C 
ATOM     28  N   GLN A   2      18.465  12.117   6.293  0.00  0.00    -0.297 N 
ATOM     29  H   GLN A   2      18.550  12.275   7.317  0.00  0.00    +0.150 HD
ATOM     30  O   HIS A   1      19.319  12.521   4.260  0.00  0.00    -0.274 OA
BRANCH  27  31
ATOM     31  CA  HIS A   1      20.456  13.506   6.127  0.00  0.00    +0.151 C 
BRANCH  31  32
ATOM     32  N   HIS A   1      19.891  14.346   7.162  0.00  0.00    -0.238 NA
ATOM     33  H   HIS A   1      20.229  14.231   8.139  0.00  0.00    +0.142 HD
ENDBRANCH  31  32
BRANCH  31  34
ATOM     34  CB  HIS A   1      21.543  12.644   6.750  0.00  0.00    +0.074 C 
BRANCH  34  35
ATOM     35  CG  HIS A   1      22.295  11.797   5.781  0.00  0.00    +0.082 A 
ATOM     36  CD2 HIS A   1      22.833  10.565   5.922  0.00  0.00    +0.115 A 
ATOM     37  NE2 HIS A   1      23.454  10.254   4.739  0.00  0.00    -0.221 NA
ATOM     38  CE1 HIS A   1      23.307  11.263   3.900  0.00  0.00    +0.199 A 
ATOM     39  ND1 HIS A   1      22.616  12.211   4.505  0.00  0.00    -0.227 NA
ENDBRANCH  34  35
ENDBRANCH  31  34
ENDBRANCH  27  31
ENDBRANCH  26  28
BRANCH  26  40
ATOM     40  CB  GLN A   2      16.535  10.813   6.970  0.00  0.00    +0.039 C 
BRANCH  40  41
ATOM     41  CG  GLN A   2      15.313   9.969   6.620  0.00  0.00    +0.087 C 
BRANCH  41  42
ATOM     42  CD  GLN A   2      14.537   9.572   7.864  0.00  0.00    +0.219 C 
ATOM     43  NE2 GLN A   2      15.237   9.463   8.978  0.00  0.00    -0.329 N 
ATOM     44 HE21 GLN A   2      14.760   9.222   9.870  0.00  0.00    +0.145 HD
ATOM     45 HE22 GLN A   2      16.265   9.619   8.963  0.00  0.00    +0.145 HD
ATOM     46  OE1 GLN A   2      13.314   9.398   7.824  0.00  0.00    -0.275 OA
ENDBRANCH  41  42
ENDBRANCH  40  41
ENDBRANCH  26  40
ENDBRANCH  22  26
ENDBRANCH  21  23
BRANCH  21  47
ATOM     47  CB  MET A   3      14.967  15.469   5.101  0.00  0.00    +0.041 C 
BRANCH  47  48
ATOM     48  CG  MET A   3      14.021  15.160   6.254  0.00  0.00    +0.060 C 
BRANCH  48  49
ATOM     49  SD  MET A   3      13.473  16.642   7.108  0.00  0.00    -0.139 S 
ATOM     50  CE  MET A   3      12.569  17.483   5.812  0.00  0.00    +0.069 C 
ENDBRANCH  48  49
ENDBRANCH  47  48
ENDBRANCH  21  47
ENDBRANCH  17  21
ENDBRANCH  16  18
BRANCH  16  51
ATOM     51  CB  LEU A   4      19.691  15.439   2.472  0.00  0.00    +0.029 C 
BRANCH  51  52
ATOM     52  CG  LEU A   4      20.663  15.909   1.399  0.00  0.00    +0.002 C 
ATOM     53  CD2 LEU A   4      21.994  16.264   2.040  0.00  0.00    +0.000 C 
ATOM     54  CD1 LEU A   4      20.076  17.093   0.651  0.00  0.00    +0.000 C 
ENDBRANCH  51  52
ENDBRANCH  16  51
ENDBRANCH  12  16
ENDBRANCH  11  13
BRANCH  11  55
ATOM     55  CB  LEU A   5      18.700  10.249   1.632  0.00  0.00    +0.029 C 
BRANCH  55  56
ATOM     56  CG  LEU A   5      20.144  10.062   2.114  0.00  0.00    +0.002 C 
ATOM     57  CD2 LEU A   5      20.219   8.967   3.182  0.00  0.00    +0.000 C 
ATOM     58  CD1 LEU A   5      21.082   9.752   0.949  0.00  0.00    +0.000 C 
ENDBRANCH  55  56
ENDBRANCH  11  55
ENDBRANCH   7  11
ENDBRANCH   6   8
BRANCH   6  59
ATOM     59  CB  VAL A   6      13.557  11.689   0.613  0.00  0.00    +0.027 C 
ATOM     60  CG2 VAL A   6      13.381  10.433   1.468  0.00  0.00    +0.002 C 
ATOM     61  CG1 VAL A   6      12.303  11.980  -0.219  0.00  0.00    +0.002 C 
ENDBRANCH   6  59
ENDBRANCH   2   6
ENDBRANCH   1   3
BRANCH   1  62
ATOM     62  C   GLN A   7      16.310  14.344  -3.232  0.00  0.00    +0.241 C 
ATOM     63  N   GLN A   8      17.443  13.770  -2.857  0.00  0.00    -0.297 N 
ATOM     64  H   GLN A   8      17.630  13.599  -1.848  0.00  0.00    +0.150 HD
ATOM     65  O   GLN A   7      15.988  14.469  -4.412  0.00  0.00    -0.273 OA
BRANCH  63  66
ATOM     66  CA  GLN A   8      18.427  13.379  -3.856  0.00  0.00    +0.149 C 
BRANCH  66  67
ATOM     67  C   GLN A   8      18.111  12.064  -4.584  0.00  0.00    +0.241 C 
ATOM     68  N   ALA A   9      17.217  11.248  -4.021  0.00  0.00    -0.297 N 
ATOM     69  H   ALA A   9      16.802  11.505  -3.103  0.00  0.00    +0.150 HD
ATOM     70  O   GLN A   8      18.654  11.810  -5.660  0.00  0.00    -0.273 OA
BRANCH  68  71
ATOM     71  CA  ALA A   9      16.807   9.997  -4.667  0.00  0.00    +0.149 C 
ATOM     72  CB  ALA A   9      15.817   9.230  -3.787  0.00  0.00    +0.031 C 
BRANCH  71  73
ATOM     73  C   ALA A   9      16.183  10.271  -6.027  0.00  0.00    +0.241 C 
ATOM     74  N   GLU A  10      15.640  11.471  -6.195  0.00  0.00    -0.297 N 
ATOM     75  H   GLU A  10      15.685  12.166  -5.422  0.00  0.00    +0.150 HD
ATOM     76  O   ALA A   9      16.196   9.407  -6.912  0.00  0.00    -0.273 OA
BRANCH  74  77
ATOM     77  CA  GLU A  10      14.981  11.831  -7.445  0.00  0.00    +0.149 C 
BRANCH  77  78
ATOM     78  C   GLU A  10      15.928  11.695  -8.645  0.00  0.00    +0.241 C 
ATOM     79  N   ASP A  11      17.223  11.916  -8.416  0.00  0.00    -0.297 N 
ATOM     80  H   ASP A  11      17.533  12.161  -7.454  0.00  0.00    +0.150 HD
ATOM     81  O   GLU A  10      15.486  11.379  -9.757  0.00  0.00    -0.273 OA
BRANCH  79  82
ATOM     82  CA  ASP A  11      18.217  11.823  -9.484  0.00  0.00    +0.160 C 
BRANCH  82  83
ATOM     83  C   ASP A  11      18.260  10.425 -10.087  0.00  0.00    +0.241 C 
ATOM     84  N   MET A  12      18.353   9.411  -9.233  0.00  0.00    -0.297 N 
ATOM     85  H   MET A  12      18.393   9.604  -8.212  0.00  0.00    +0.150 HD
ATOM     86  O   ASP A  11      18.212  10.264 -11.311  0.00  0.00    -0.273 OA
BRANCH  84  87
ATOM     87  CA  MET A  12      18.400   8.035  -9.704  0.00  0.00    +0.149 C 
BRANCH  87  88
ATOM     88  C   MET A  12      17.057   7.609 -10.292  0.00  0.00    +0.241 C 
ATOM     89  N   ILE A  13      15.972   8.090  -9.692  0.00  0.00    -0.298 N 
ATOM     90  H   ILE A  13      16.081   8.692  -8.851  0.00  0.00    +0.150 HD
ATOM     91  O   MET A  12      17.008   6.861 -11.265  0.00  0.00    -0.273 OA
BRANCH  89  92
ATOM     92  CA  ILE A  13      14.637   7.793 -10.186  0.00  0.00    +0.137 C 
BRANCH  92  93
ATOM     93  C   ILE A  13      14.508   8.299 -11.635  0.00  0.00    +0.227 C 
ATOM     94  O   ILE A  13      14.024   7.578 -12.510  0.00  0.00    -0.286 OA
ENDBRANCH  92  93
BRANCH  92  95
ATOM     95  CB  ILE A  13      13.540   8.419  -9.275  0.00  0.00    +0.026 C 
ATOM     96  CG2 ILE A  13      12.193   8.414  -9.971  0.00  0.00    +0.002 C 
BRANCH  95  97
ATOM     97  CG1 ILE A  13      13.489   7.681  -7.922  0.00  0.00    +0.002 C 
ATOM     98  CD1 ILE A  13      12.744   8.440  -6.819  0.00  0.00    +0.000 C 
ENDBRANCH  95  97
ENDBRANCH  92  95
ENDBRANCH  89  92
ENDBRANCH  87  88
BRANCH  87  99
ATOM     99  CB  MET A  12      18.817   7.089  -8.577  0.00  0.00    +0.041 C 
BRANCH  99 100
ATOM    100  CG  MET A  12      19.136   5.683  -9.048  0.00  0.00    +0.060 C 
BRANCH 100 101
ATOM    101  SD  MET A  12      19.865   4.661  -7.757  0.00  0.00    -0.139 S 
ATOM    102  CE  MET A  12      20.049   3.111  -8.632  0.00  0.00    +0.069 C 
ENDBRANCH 100 101
ENDBRANCH  99 100
ENDBRANCH  87  99
ENDBRANCH  84  87
ENDBRANCH  82  83
BRANCH  82 103
ATOM    103  CB  ASP A  11      19.606  12.201  -8.966  0.00  0.00    +0.143 C 
BRANCH 103 104
ATOM    104  CG  ASP A  11      19.710  13.665  -8.600  0.00  0.00    +0.367 C 
ATOM    105  OD2 ASP A  11      20.580  14.009  -7.770  0.00  0.00    -0.246 OA
ATOM    106  OD1 ASP A  11      18.923  14.471  -9.148  0.00  0.00    -0.246 OA
ENDBRANCH 103 104
ENDBRANCH  82 103
ENDBRANCH  79  82
ENDBRANCH  77  78
BRANCH  77 107
ATOM    107  CB  GLU A  10      14.411  13.254  -7.378  0.00  0.00    +0.041 C 
BRANCH 107 108
ATOM    108  CG  GLU A  10      13.648  13.669  -8.629  0.00  0.00    +0.116 C 
BRANCH 108 109
ATOM    109  CD  GLU A  10      12.759  14.886  -8.416  0.00  0.00    +0.365 C 
ATOM    110  OE2 GLU A  10      12.887  15.566  -7.370  0.00  0.00    -0.246 OA
ATOM    111  OE1 GLU A  10      11.914  15.158  -9.289  0.00  0.00    -0.246 OA
ENDBRANCH 108 109
ENDBRANCH 107 108
ENDBRANCH  77 107
ENDBRANCH  74  77
ENDBRANCH  71  73
ENDBRANCH  68  71
ENDBRANCH  66  67
BRANCH  66 112
ATOM    112  CB  GLN A   8      19.840  13.387  -3.267  0.00  0.00    +0.039 C 
BRANCH 112 113
ATOM    113  CG  GLN A   8      20.291  12.107  -2.627  0.00  0.00    +0.087 C 
BRANCH 113 114
ATOM    114  CD  GLN A   8      21.655  12.248  -1.977  0.00  0.00    +0.219 C 
ATOM    115  OE1 GLN A   8      21.890  13.175  -1.195  0.00  0.00    -0.275 OA
ATOM    116  NE2 GLN A   8      22.564  11.331  -2.299  0.00  0.00    -0.329 N 
ATOM    117 HE21 GLN A   8      23.518  11.377  -1.887  0.00  0.00    +0.145 HD
ATOM    118 HE22 GLN A   8      22.321  10.568  -2.962  0.00  0.00    +0.145 HD
ENDBRANCH 113 114
ENDBRANCH 112 113
ENDBRANCH  66 112
ENDBRANCH  63  66
ENDBRANCH   1  62
BRANCH   1 119
ATOM    119  CB  GLN A   7      15.912  16.090  -1.491  0.00  0.00    +0.039 C 
BRANCH 119 120
ATOM    120  CG  GLN A   7      14.911  16.749  -0.565  0.00  0.00    +0.087 C 
BRANCH 120 121
ATOM    121  CD  GLN A   7      15.552  17.762   0.371  0.00  0.00    +0.219 C 
ATOM    122  OE1 GLN A   7      14.879  18.361   1.208  0.00  0.00    -0.275 OA
ATOM    123  NE2 GLN A   7      16.861  17.953   0.233  0.00  0.00    -0.329 N 
ATOM    124 HE21 GLN A   7      17.355  18.631   0.847  0.00  0.00    +0.145 HD
ATOM    125 HE22 GLN A   7      17.390  17.424  -0.489  0.00  0.00    +0.145 HD
ENDBRANCH 120 121
ENDBRANCH 119 120
ENDBRANCH   1 119
TORSDOF 55
REMARK  Name = ../refined-set-2016/4b2i/4b2i_pocket.pdb
REMARK  105 active torsions:
REMARK  status: ('A' for Active; 'I' for Inactive)
REMARK    1  A    between atoms: _1  and  _3
REMARK    2  A    between atoms: _3  and  _4
REMARK    3  A    between atoms: _3  and  _6
REMARK    4  A    between atoms: _9  and  _11
REMARK    5  A    between atoms: _11  and  _12
REMARK    6  A    between atoms: _11  and  _14
REMARK    7  A    between atoms: _14  and  _15
REMARK    8  A    between atoms: _15  and  _16
REMARK    9  A    between atoms: _18  and  _20
REMARK   10  A    between atoms: _20  and  _21
REMARK   11  A    between atoms: _20  and  _23
REMARK   12  A    between atoms: _23  and  _24
REMARK   13  A    between atoms: _34  and  _36
REMARK   14  A    between atoms: _36  and  _37
REMARK   15  A    between atoms: _36  and  _39
REMARK   16  A    between atoms: _39  and  _40
REMARK   17  A    between atoms: _43  and  _45
REMARK   18  A    between atoms: _45  and  _46
REMARK   19  A    between atoms: _45  and  _48
REMARK   20  A    between atoms: _48  and  _49
REMARK   21  A    between atoms: _52  and  _54
REMARK   22  A    between atoms: _54  and  _55
REMARK   23  A    between atoms: _54  and  _57
REMARK   24  A    between atoms: _57  and  _58
REMARK   25  A    between atoms: _61  and  _63
REMARK   26  A    between atoms: _63  and  _64
REMARK   27  A    between atoms: _67  and  _69
REMARK   28  A    between atoms: _69  and  _70
REMARK   29  A    between atoms: _69  and  _72
REMARK   30  A    between atoms: _72  and  _73
REMARK   31  A    between atoms: _78  and  _79
REMARK   32  A    between atoms: _81  and  _83
REMARK   33  A    between atoms: _83  and  _84
REMARK   34  A    between atoms: _87  and  _89
REMARK   35  A    between atoms: _89  and  _90
REMARK   36  A    between atoms: _89  and  _92
REMARK   37  A    between atoms: _92  and  _93
REMARK   38  A    between atoms: _93  and  _94
REMARK   39  A    between atoms: _94  and  _95
REMARK   40  A    between atoms: _104  and  _106
REMARK   41  A    between atoms: _106  and  _107
REMARK   42  A    between atoms: _106  and  _109
REMARK   43  A    between atoms: _109  and  _110
REMARK   44  A    between atoms: _115  and  _117
REMARK   45  A    between atoms: _117  and  _118
REMARK   46  A    between atoms: _117  and  _120
REMARK   47  A    between atoms: _120  and  _121
REMARK   48  A    between atoms: _121  and  _122
REMARK   49  A    between atoms: _127  and  _129
REMARK   50  A    between atoms: _129  and  _130
REMARK   51  A    between atoms: _129  and  _132
REMARK   52  A    between atoms: _132  and  _133
REMARK   53  A    between atoms: _133  and  _134
REMARK   54  A    between atoms: _136  and  _138
REMARK   55  A    between atoms: _138  and  _139
REMARK   56  A    between atoms: _138  and  _141
REMARK   57  A    between atoms: _141  and  _142
REMARK   58  A    between atoms: _145  and  _147
REMARK   59  A    between atoms: _147  and  _148
REMARK   60  A    between atoms: _147  and  _150
REMARK   61  A    between atoms: _150  and  _151
REMARK   62  A    between atoms: _154  and  _156
REMARK   63  A    between atoms: _156  and  _157
REMARK   64  A    between atoms: _156  and  _159
REMARK   65  A    between atoms: _162  and  _164
REMARK   66  A    between atoms: _164  and  _165
REMARK   67  A    between atoms: _164  and  _167
REMARK   68  A    between atoms: _167  and  _168
REMARK   69  A    between atoms: _168  and  _169
REMARK   70  A    between atoms: _174  and  _176
REMARK   71  A    between atoms: _176  and  _177
REMARK   72  A    between atoms: _176  and  _179
REMARK   73  A    between atoms: _179  and  _180
REMARK   74  A    between atoms: _180  and  _181
REMARK   75  A    between atoms: _186  and  _188
REMARK   76  A    between atoms: _188  and  _189
REMARK   77  A    between atoms: _192  and  _194
REMARK   78  A    between atoms: _194  and  _195
REMARK   79  A    between atoms: _194  and  _197
REMARK   80  A    between atoms: _197  and  _198
REMARK   81  A    between atoms: _198  and  _199
REMARK   82  A    between atoms: _202  and  _204
REMARK   83  A    between atoms: _204  and  _205
REMARK   84  A    between atoms: _204  and  _207
REMARK   85  A    between atoms: _207  and  _208
REMARK   86  A    between atoms: _211  and  _213
REMARK   87  A    between atoms: _213  and  _214
REMARK   88  A    between atoms: _213  and  _216
REMARK   89  A    between atoms: _216  and  _217
REMARK   90  A    between atoms: _217  and  _218
REMARK   91  A    between atoms: _220  and  _222
REMARK   92  A    between atoms: _222  and  _223
REMARK   93  A    between atoms: _222  and  _225
REMARK   94  A    between atoms: _225  and  _226
REMARK   95  A    between atoms: _229  and  _231
REMARK   96  A    between atoms: _231  and  _232
REMARK   97  A    between atoms: _231  and  _234
REMARK   98  A    between atoms: _234  and  _235
REMARK   99  A    between atoms: _238  and  _240
REMARK  100  A    between atoms: _240  and  _241
REMARK  101  A    between atoms: _240  and  _243
REMARK  102  A    between atoms: _243  and  _244
REMARK  103  A    between atoms: _247  and  _249
REMARK  104  A    between atoms: _249  and  _250
REMARK  105  A    between atoms: _249  and  _252
REMARK                            x       y       z     vdW  Elec       q    Type
REMARK                         _______ _______ _______ _____ _____    ______ ____
ROOT
ATOM      1  CA  ILE A   2      11.685   2.055   1.332  0.00  0.00    +0.148 C 
ENDROOT
BRANCH   1   3
ATOM      2  C   LEU A   1      10.929   2.999  -0.796  0.00  0.00    +0.238 C 
ATOM      3  N   ILE A   2      11.882   2.443  -0.059  0.00  0.00    -0.297 N 
ATOM      4  H   ILE A   2      12.812   2.276  -0.494  0.00  0.00    +0.150 HD
ATOM      5  O   LEU A   1       9.795   3.236  -0.367  0.00  0.00    -0.274 OA
BRANCH   2   6
ATOM      6  CA  LEU A   1      11.273   3.294  -2.241  0.00  0.00    +0.145 C 
BRANCH   6   7
ATOM      7  N   LEU A   1      10.380   2.497  -3.053  0.00  0.00    -0.238 NA
ATOM      8  H   LEU A   1       9.355   2.621  -2.933  0.00  0.00    +0.142 HD
ENDBRANCH   6   7
BRANCH   6   9
ATOM      9  CB  LEU A   1      11.090   4.780  -2.542  0.00  0.00    +0.026 C 
BRANCH   9  10
ATOM     10  CG  LEU A   1      11.793   5.797  -1.649  0.00  0.00    +0.002 C 
ATOM     11  CD2 LEU A   1      13.295   5.579  -1.541  0.00  0.00    +0.000 C 
ATOM     12  CD1 LEU A   1      11.490   7.206  -2.164  0.00  0.00    +0.000 C 
ENDBRANCH   9  10
ENDBRANCH   6   9
ENDBRANCH   2   6
ENDBRANCH   1   3
BRANCH   1  13
ATOM     13  C   ILE A   2      12.389   3.041   2.244  0.00  0.00    +0.241 C 
ATOM     14  N   VAL A   3      11.709   3.469   3.302  0.00  0.00    -0.298 N 
ATOM     15  H   VAL A   3      10.688   3.281   3.362  0.00  0.00    +0.150 HD
ATOM     16  O   ILE A   2      13.536   3.450   1.963  0.00  0.00    -0.273 OA
BRANCH  14  17
ATOM     17  CA  VAL A   3      12.364   4.195   4.377  0.00  0.00    +0.137 C 
BRANCH  17  18
ATOM     18  CB  VAL A   3      11.839   5.631   4.548  0.00  0.00    +0.026 C 
ATOM     19  CG2 VAL A   3      12.665   6.386   5.603  0.00  0.00    +0.002 C 
ATOM     20  CG1 VAL A   3      11.864   6.378   3.229  0.00  0.00    +0.002 C 
ENDBRANCH  17  18
BRANCH  17  21
ATOM     21  C   VAL A   3      12.112   3.405   5.655  0.00  0.00    +0.227 C 
ATOM     22  O   VAL A   3      10.972   3.361   6.162  0.00  0.00    -0.286 OA
ENDBRANCH  17  21
ENDBRANCH  14  17
ENDBRANCH   1  13
BRANCH   1  23
ATOM     23  CB  ILE A   2      12.248   0.645   1.568  0.00  0.00    +0.027 C 
ATOM     24  CG2 ILE A   2      12.416   0.333   3.058  0.00  0.00    +0.002 C 
BRANCH  23  25
ATOM     25  CG1 ILE A   2      11.346  -0.400   0.903  0.00  0.00    +0.002 C 
ATOM     26  CD1 ILE A   2      12.014  -1.746   0.683  0.00  0.00    +0.000 C 
ENDBRANCH  23  25
ENDBRANCH   1  23
TORSDOF 11
REMARK  Name = ../refined-set-2016/4b2i/4b2i_pocket.pdb
REMARK  105 active torsions:
REMARK  status: ('A' for Active; 'I' for Inactive)
REMARK    1  A    between atoms: _1  and  _3
REMARK    2  A    between atoms: _3  and  _4
REMARK    3  A    between atoms: _3  and  _6
REMARK    4  A    between atoms: _9  and  _11
REMARK    5  A    between atoms: _11  and  _12
REMARK    6  A    between atoms: _11  and  _14
REMARK    7  A    between atoms: _14  and  _15
REMARK    8  A    between atoms: _15  and  _16
REMARK    9  A    between atoms: _18  and  _20
REMARK   10  A    between atoms: _20  and  _21
REMARK   11  A    between atoms: _20  and  _23
REMARK   12  A    between atoms: _23  and  _24
REMARK   13  A    between atoms: _34  and  _36
REMARK   14  A    between atoms: _36  and  _37
REMARK   15  A    between atoms: _36  and  _39
REMARK   16  A    between atoms: _39  and  _40
REMARK   17  A    between atoms: _43  and  _45
REMARK   18  A    between atoms: _45  and  _46
REMARK   19  A    between atoms: _45  and  _48
REMARK   20  A    between atoms: _48  and  _49
REMARK   21  A    between atoms: _52  and  _54
REMARK   22  A    between atoms: _54  and  _55
REMARK   23  A    between atoms: _54  and  _57
REMARK   24  A    between atoms: _57  and  _58
REMARK   25  A    between atoms: _61  and  _63
REMARK   26  A    between atoms: _63  and  _64
REMARK   27  A    between atoms: _67  and  _69
REMARK   28  A    between atoms: _69  and  _70
REMARK   29  A    between atoms: _69  and  _72
REMARK   30  A    between atoms: _72  and  _73
REMARK   31  A    between atoms: _78  and  _79
REMARK   32  A    between atoms: _81  and  _83
REMARK   33  A    between atoms: _83  and  _84
REMARK   34  A    between atoms: _87  and  _89
REMARK   35  A    between atoms: _89  and  _90
REMARK   36  A    between atoms: _89  and  _92
REMARK   37  A    between atoms: _92  and  _93
REMARK   38  A    between atoms: _93  and  _94
REMARK   39  A    between atoms: _94  and  _95
REMARK   40  A    between atoms: _104  and  _106
REMARK   41  A    between atoms: _106  and  _107
REMARK   42  A    between atoms: _106  and  _109
REMARK   43  A    between atoms: _109  and  _110
REMARK   44  A    between atoms: _115  and  _117
REMARK   45  A    between atoms: _117  and  _118
REMARK   46  A    between atoms: _117  and  _120
REMARK   47  A    between atoms: _120  and  _121
REMARK   48  A    between atoms: _121  and  _122
REMARK   49  A    between atoms: _127  and  _129
REMARK   50  A    between atoms: _129  and  _130
REMARK   51  A    between atoms: _129  and  _132
REMARK   52  A    between atoms: _132  and  _133
REMARK   53  A    between atoms: _133  and  _134
REMARK   54  A    between atoms: _136  and  _138
REMARK   55  A    between atoms: _138  and  _139
REMARK   56  A    between atoms: _138  and  _141
REMARK   57  A    between atoms: _141  and  _142
REMARK   58  A    between atoms: _145  and  _147
REMARK   59  A    between atoms: _147  and  _148
REMARK   60  A    between atoms: _147  and  _150
REMARK   61  A    between atoms: _150  and  _151
REMARK   62  A    between atoms: _154  and  _156
REMARK   63  A    between atoms: _156  and  _157
REMARK   64  A    between atoms: _156  and  _159
REMARK   65  A    between atoms: _162  and  _164
REMARK   66  A    between atoms: _164  and  _165
REMARK   67  A    between atoms: _164  and  _167
REMARK   68  A    between atoms: _167  and  _168
REMARK   69  A    between atoms: _168  and  _169
REMARK   70  A    between atoms: _174  and  _176
REMARK   71  A    between atoms: _176  and  _177
REMARK   72  A    between atoms: _176  and  _179
REMARK   73  A    between atoms: _179  and  _180
REMARK   74  A    between atoms: _180  and  _181
REMARK   75  A    between atoms: _186  and  _188
REMARK   76  A    between atoms: _188  and  _189
REMARK   77  A    between atoms: _192  and  _194
REMARK   78  A    between atoms: _194  and  _195
REMARK   79  A    between atoms: _194  and  _197
REMARK   80  A    between atoms: _197  and  _198
REMARK   81  A    between atoms: _198  and  _199
REMARK   82  A    between atoms: _202  and  _204
REMARK   83  A    between atoms: _204  and  _205
REMARK   84  A    between atoms: _204  and  _207
REMARK   85  A    between atoms: _207  and  _208
REMARK   86  A    between atoms: _211  and  _213
REMARK   87  A    between atoms: _213  and  _214
REMARK   88  A    between atoms: _213  and  _216
REMARK   89  A    between atoms: _216  and  _217
REMARK   90  A    between atoms: _217  and  _218
REMARK   91  A    between atoms: _220  and  _222
REMARK   92  A    between atoms: _222  and  _223
REMARK   93  A    between atoms: _222  and  _225
REMARK   94  A    between atoms: _225  and  _226
REMARK   95  A    between atoms: _229  and  _231
REMARK   96  A    between atoms: _231  and  _232
REMARK   97  A    between atoms: _231  and  _234
REMARK   98  A    between atoms: _234  and  _235
REMARK   99  A    between atoms: _238  and  _240
REMARK  100  A    between atoms: _240  and  _241
REMARK  101  A    between atoms: _240  and  _243
REMARK  102  A    between atoms: _243  and  _244
REMARK  103  A    between atoms: _247  and  _249
REMARK  104  A    between atoms: _249  and  _250
REMARK  105  A    between atoms: _249  and  _252
REMARK                            x       y       z     vdW  Elec       q    Type
REMARK                         _______ _______ _______ _____ _____    ______ ____
ROOT
ATOM      1  O   HOH     1      17.413   1.361  -8.000  0.00  0.00    +0.000 OA
ENDROOT
TORSDOF 0
REMARK  Name = ../refined-set-2016/4b2i/4b2i_pocket.pdb
REMARK  105 active torsions:
REMARK  status: ('A' for Active; 'I' for Inactive)
REMARK    1  A    between atoms: _1  and  _3
REMARK    2  A    between atoms: _3  and  _4
REMARK    3  A    between atoms: _3  and  _6
REMARK    4  A    between atoms: _9  and  _11
REMARK    5  A    between atoms: _11  and  _12
REMARK    6  A    between atoms: _11  and  _14
REMARK    7  A    between atoms: _14  and  _15
REMARK    8  A    between atoms: _15  and  _16
REMARK    9  A    between atoms: _18  and  _20
REMARK   10  A    between atoms: _20  and  _21
REMARK   11  A    between atoms: _20  and  _23
REMARK   12  A    between atoms: _23  and  _24
REMARK   13  A    between atoms: _34  and  _36
REMARK   14  A    between atoms: _36  and  _37
REMARK   15  A    between atoms: _36  and  _39
REMARK   16  A    between atoms: _39  and  _40
REMARK   17  A    between atoms: _43  and  _45
REMARK   18  A    between atoms: _45  and  _46
REMARK   19  A    between atoms: _45  and  _48
REMARK   20  A    between atoms: _48  and  _49
REMARK   21  A    between atoms: _52  and  _54
REMARK   22  A    between atoms: _54  and  _55
REMARK   23  A    between atoms: _54  and  _57
REMARK   24  A    between atoms: _57  and  _58
REMARK   25  A    between atoms: _61  and  _63
REMARK   26  A    between atoms: _63  and  _64
REMARK   27  A    between atoms: _67  and  _69
REMARK   28  A    between atoms: _69  and  _70
REMARK   29  A    between atoms: _69  and  _72
REMARK   30  A    between atoms: _72  and  _73
REMARK   31  A    between atoms: _78  and  _79
REMARK   32  A    between atoms: _81  and  _83
REMARK   33  A    between atoms: _83  and  _84
REMARK   34  A    between atoms: _87  and  _89
REMARK   35  A    between atoms: _89  and  _90
REMARK   36  A    between atoms: _89  and  _92
REMARK   37  A    between atoms: _92  and  _93
REMARK   38  A    between atoms: _93  and  _94
REMARK   39  A    between atoms: _94  and  _95
REMARK   40  A    between atoms: _104  and  _106
REMARK   41  A    between atoms: _106  and  _107
REMARK   42  A    between atoms: _106  and  _109
REMARK   43  A    between atoms: _109  and  _110
REMARK   44  A    between atoms: _115  and  _117
REMARK   45  A    between atoms: _117  and  _118
REMARK   46  A    between atoms: _117  and  _120
REMARK   47  A    between atoms: _120  and  _121
REMARK   48  A    between atoms: _121  and  _122
REMARK   49  A    between atoms: _127  and  _129
REMARK   50  A    between atoms: _129  and  _130
REMARK   51  A    between atoms: _129  and  _132
REMARK   52  A    between atoms: _132  and  _133
REMARK   53  A    between atoms: _133  and  _134
REMARK   54  A    between atoms: _136  and  _138
REMARK   55  A    between atoms: _138  and  _139
REMARK   56  A    between atoms: _138  and  _141
REMARK   57  A    between atoms: _141  and  _142
REMARK   58  A    between atoms: _145  and  _147
REMARK   59  A    between atoms: _147  and  _148
REMARK   60  A    between atoms: _147  and  _150
REMARK   61  A    between atoms: _150  and  _151
REMARK   62  A    between atoms: _154  and  _156
REMARK   63  A    between atoms: _156  and  _157
REMARK   64  A    between atoms: _156  and  _159
REMARK   65  A    between atoms: _162  and  _164
REMARK   66  A    between atoms: _164  and  _165
REMARK   67  A    between atoms: _164  and  _167
REMARK   68  A    between atoms: _167  and  _168
REMARK   69  A    between atoms: _168  and  _169
REMARK   70  A    between atoms: _174  and  _176
REMARK   71  A    between atoms: _176  and  _177
REMARK   72  A    between atoms: _176  and  _179
REMARK   73  A    between atoms: _179  and  _180
REMARK   74  A    between atoms: _180  and  _181
REMARK   75  A    between atoms: _186  and  _188
REMARK   76  A    between atoms: _188  and  _189
REMARK   77  A    between atoms: _192  and  _194
REMARK   78  A    between atoms: _194  and  _195
REMARK   79  A    between atoms: _194  and  _197
REMARK   80  A    between atoms: _197  and  _198
REMARK   81  A    between atoms: _198  and  _199
REMARK   82  A    between atoms: _202  and  _204
REMARK   83  A    between atoms: _204  and  _205
REMARK   84  A    between atoms: _204  and  _207
REMARK   85  A    between atoms: _207  and  _208
REMARK   86  A    between atoms: _211  and  _213
REMARK   87  A    between atoms: _213  and  _214
REMARK   88  A    between atoms: _213  and  _216
REMARK   89  A    between atoms: _216  and  _217
REMARK   90  A    between atoms: _217  and  _218
REMARK   91  A    between atoms: _220  and  _222
REMARK   92  A    between atoms: _222  and  _223
REMARK   93  A    between atoms: _222  and  _225
REMARK   94  A    between atoms: _225  and  _226
REMARK   95  A    between atoms: _229  and  _231
REMARK   96  A    between atoms: _231  and  _232
REMARK   97  A    between atoms: _231  and  _234
REMARK   98  A    between atoms: _234  and  _235
REMARK   99  A    between atoms: _238  and  _240
REMARK  100  A    between atoms: _240  and  _241
REMARK  101  A    between atoms: _240  and  _243
REMARK  102  A    between atoms: _243  and  _244
REMARK  103  A    between atoms: _247  and  _249
REMARK  104  A    between atoms: _249  and  _250
REMARK  105  A    between atoms: _249  and  _252
REMARK                            x       y       z     vdW  Elec       q    Type
REMARK                         _______ _______ _______ _____ _____    ______ ____
ROOT
ATOM      1  O   HOH     1      23.205   2.553  -6.649  0.00  0.00    +0.000 OA
ENDROOT
TORSDOF 0
REMARK  Name = ../refined-set-2016/4b2i/4b2i_pocket.pdb
REMARK  105 active torsions:
REMARK  status: ('A' for Active; 'I' for Inactive)
REMARK    1  A    between atoms: _1  and  _3
REMARK    2  A    between atoms: _3  and  _4
REMARK    3  A    between atoms: _3  and  _6
REMARK    4  A    between atoms: _9  and  _11
REMARK    5  A    between atoms: _11  and  _12
REMARK    6  A    between atoms: _11  and  _14
REMARK    7  A    between atoms: _14  and  _15
REMARK    8  A    between atoms: _15  and  _16
REMARK    9  A    between atoms: _18  and  _20
REMARK   10  A    between atoms: _20  and  _21
REMARK   11  A    between atoms: _20  and  _23
REMARK   12  A    between atoms: _23  and  _24
REMARK   13  A    between atoms: _34  and  _36
REMARK   14  A    between atoms: _36  and  _37
REMARK   15  A    between atoms: _36  and  _39
REMARK   16  A    between atoms: _39  and  _40
REMARK   17  A    between atoms: _43  and  _45
REMARK   18  A    between atoms: _45  and  _46
REMARK   19  A    between atoms: _45  and  _48
REMARK   20  A    between atoms: _48  and  _49
REMARK   21  A    between atoms: _52  and  _54
REMARK   22  A    between atoms: _54  and  _55
REMARK   23  A    between atoms: _54  and  _57
REMARK   24  A    between atoms: _57  and  _58
REMARK   25  A    between atoms: _61  and  _63
REMARK   26  A    between atoms: _63  and  _64
REMARK   27  A    between atoms: _67  and  _69
REMARK   28  A    between atoms: _69  and  _70
REMARK   29  A    between atoms: _69  and  _72
REMARK   30  A    between atoms: _72  and  _73
REMARK   31  A    between atoms: _78  and  _79
REMARK   32  A    between atoms: _81  and  _83
REMARK   33  A    between atoms: _83  and  _84
REMARK   34  A    between atoms: _87  and  _89
REMARK   35  A    between atoms: _89  and  _90
REMARK   36  A    between atoms: _89  and  _92
REMARK   37  A    between atoms: _92  and  _93
REMARK   38  A    between atoms: _93  and  _94
REMARK   39  A    between atoms: _94  and  _95
REMARK   40  A    between atoms: _104  and  _106
REMARK   41  A    between atoms: _106  and  _107
REMARK   42  A    between atoms: _106  and  _109
REMARK   43  A    between atoms: _109  and  _110
REMARK   44  A    between atoms: _115  and  _117
REMARK   45  A    between atoms: _117  and  _118
REMARK   46  A    between atoms: _117  and  _120
REMARK   47  A    between atoms: _120  and  _121
REMARK   48  A    between atoms: _121  and  _122
REMARK   49  A    between atoms: _127  and  _129
REMARK   50  A    between atoms: _129  and  _130
REMARK   51  A    between atoms: _129  and  _132
REMARK   52  A    between atoms: _132  and  _133
REMARK   53  A    between atoms: _133  and  _134
REMARK   54  A    between atoms: _136  and  _138
REMARK   55  A    between atoms: _138  and  _139
REMARK   56  A    between atoms: _138  and  _141
REMARK   57  A    between atoms: _141  and  _142
REMARK   58  A    between atoms: _145  and  _147
REMARK   59  A    between atoms: _147  and  _148
REMARK   60  A    between atoms: _147  and  _150
REMARK   61  A    between atoms: _150  and  _151
REMARK   62  A    between atoms: _154  and  _156
REMARK   63  A    between atoms: _156  and  _157
REMARK   64  A    between atoms: _156  and  _159
REMARK   65  A    between atoms: _162  and  _164
REMARK   66  A    between atoms: _164  and  _165
REMARK   67  A    between atoms: _164  and  _167
REMARK   68  A    between atoms: _167  and  _168
REMARK   69  A    between atoms: _168  and  _169
REMARK   70  A    between atoms: _174  and  _176
REMARK   71  A    between atoms: _176  and  _177
REMARK   72  A    between atoms: _176  and  _179
REMARK   73  A    between atoms: _179  and  _180
REMARK   74  A    between atoms: _180  and  _181
REMARK   75  A    between atoms: _186  and  _188
REMARK   76  A    between atoms: _188  and  _189
REMARK   77  A    between atoms: _192  and  _194
REMARK   78  A    between atoms: _194  and  _195
REMARK   79  A    between atoms: _194  and  _197
REMARK   80  A    between atoms: _197  and  _198
REMARK   81  A    between atoms: _198  and  _199
REMARK   82  A    between atoms: _202  and  _204
REMARK   83  A    between atoms: _204  and  _205
REMARK   84  A    between atoms: _204  and  _207
REMARK   85  A    between atoms: _207  and  _208
REMARK   86  A    between atoms: _211  and  _213
REMARK   87  A    between atoms: _213  and  _214
REMARK   88  A    between atoms: _213  and  _216
REMARK   89  A    between atoms: _216  and  _217
REMARK   90  A    between atoms: _217  and  _218
REMARK   91  A    between atoms: _220  and  _222
REMARK   92  A    between atoms: _222  and  _223
REMARK   93  A    between atoms: _222  and  _225
REMARK   94  A    between atoms: _225  and  _226
REMARK   95  A    between atoms: _229  and  _231
REMARK   96  A    between atoms: _231  and  _232
REMARK   97  A    between atoms: _231  and  _234
REMARK   98  A    between atoms: _234  and  _235
REMARK   99  A    between atoms: _238  and  _240
REMARK  100  A    between atoms: _240  and  _241
REMARK  101  A    between atoms: _240  and  _243
REMARK  102  A    between atoms: _243  and  _244
REMARK  103  A    between atoms: _247  and  _249
REMARK  104  A    between atoms: _249  and  _250
REMARK  105  A    between atoms: _249  and  _252
REMARK                            x       y       z     vdW  Elec       q    Type
REMARK                         _______ _______ _______ _____ _____    ______ ____
ROOT
ATOM      1  O   HOH     1      27.401   4.631  -4.083  0.00  0.00    +0.000 OA
ENDROOT
TORSDOF 0
REMARK  Name = ../refined-set-2016/4b2i/4b2i_pocket.pdb
REMARK  105 active torsions:
REMARK  status: ('A' for Active; 'I' for Inactive)
REMARK    1  A    between atoms: _1  and  _3
REMARK    2  A    between atoms: _3  and  _4
REMARK    3  A    between atoms: _3  and  _6
REMARK    4  A    between atoms: _9  and  _11
REMARK    5  A    between atoms: _11  and  _12
REMARK    6  A    between atoms: _11  and  _14
REMARK    7  A    between atoms: _14  and  _15
REMARK    8  A    between atoms: _15  and  _16
REMARK    9  A    between atoms: _18  and  _20
REMARK   10  A    between atoms: _20  and  _21
REMARK   11  A    between atoms: _20  and  _23
REMARK   12  A    between atoms: _23  and  _24
REMARK   13  A    between atoms: _34  and  _36
REMARK   14  A    between atoms: _36  and  _37
REMARK   15  A    between atoms: _36  and  _39
REMARK   16  A    between atoms: _39  and  _40
REMARK   17  A    between atoms: _43  and  _45
REMARK   18  A    between atoms: _45  and  _46
REMARK   19  A    between atoms: _45  and  _48
REMARK   20  A    between atoms: _48  and  _49
REMARK   21  A    between atoms: _52  and  _54
REMARK   22  A    between atoms: _54  and  _55
REMARK   23  A    between atoms: _54  and  _57
REMARK   24  A    between atoms: _57  and  _58
REMARK   25  A    between atoms: _61  and  _63
REMARK   26  A    between atoms: _63  and  _64
REMARK   27  A    between atoms: _67  and  _69
REMARK   28  A    between atoms: _69  and  _70
REMARK   29  A    between atoms: _69  and  _72
REMARK   30  A    between atoms: _72  and  _73
REMARK   31  A    between atoms: _78  and  _79
REMARK   32  A    between atoms: _81  and  _83
REMARK   33  A    between atoms: _83  and  _84
REMARK   34  A    between atoms: _87  and  _89
REMARK   35  A    between atoms: _89  and  _90
REMARK   36  A    between atoms: _89  and  _92
REMARK   37  A    between atoms: _92  and  _93
REMARK   38  A    between atoms: _93  and  _94
REMARK   39  A    between atoms: _94  and  _95
REMARK   40  A    between atoms: _104  and  _106
REMARK   41  A    between atoms: _106  and  _107
REMARK   42  A    between atoms: _106  and  _109
REMARK   43  A    between atoms: _109  and  _110
REMARK   44  A    between atoms: _115  and  _117
REMARK   45  A    between atoms: _117  and  _118
REMARK   46  A    between atoms: _117  and  _120
REMARK   47  A    between atoms: _120  and  _121
REMARK   48  A    between atoms: _121  and  _122
REMARK   49  A    between atoms: _127  and  _129
REMARK   50  A    between atoms: _129  and  _130
REMARK   51  A    between atoms: _129  and  _132
REMARK   52  A    between atoms: _132  and  _133
REMARK   53  A    between atoms: _133  and  _134
REMARK   54  A    between atoms: _136  and  _138
REMARK   55  A    between atoms: _138  and  _139
REMARK   56  A    between atoms: _138  and  _141
REMARK   57  A    between atoms: _141  and  _142
REMARK   58  A    between atoms: _145  and  _147
REMARK   59  A    between atoms: _147  and  _148
REMARK   60  A    between atoms: _147  and  _150
REMARK   61  A    between atoms: _150  and  _151
REMARK   62  A    between atoms: _154  and  _156
REMARK   63  A    between atoms: _156  and  _157
REMARK   64  A    between atoms: _156  and  _159
REMARK   65  A    between atoms: _162  and  _164
REMARK   66  A    between atoms: _164  and  _165
REMARK   67  A    between atoms: _164  and  _167
REMARK   68  A    between atoms: _167  and  _168
REMARK   69  A    between atoms: _168  and  _169
REMARK   70  A    between atoms: _174  and  _176
REMARK   71  A    between atoms: _176  and  _177
REMARK   72  A    between atoms: _176  and  _179
REMARK   73  A    between atoms: _179  and  _180
REMARK   74  A    between atoms: _180  and  _181
REMARK   75  A    between atoms: _186  and  _188
REMARK   76  A    between atoms: _188  and  _189
REMARK   77  A    between atoms: _192  and  _194
REMARK   78  A    between atoms: _194  and  _195
REMARK   79  A    between atoms: _194  and  _197
REMARK   80  A    between atoms: _197  and  _198
REMARK   81  A    between atoms: _198  and  _199
REMARK   82  A    between atoms: _202  and  _204
REMARK   83  A    between atoms: _204  and  _205
REMARK   84  A    between atoms: _204  and  _207
REMARK   85  A    between atoms: _207  and  _208
REMARK   86  A    between atoms: _211  and  _213
REMARK   87  A    between atoms: _213  and  _214
REMARK   88  A    between atoms: _213  and  _216
REMARK   89  A    between atoms: _216  and  _217
REMARK   90  A    between atoms: _217  and  _218
REMARK   91  A    between atoms: _220  and  _222
REMARK   92  A    between atoms: _222  and  _223
REMARK   93  A    between atoms: _222  and  _225
REMARK   94  A    between atoms: _225  and  _226
REMARK   95  A    between atoms: _229  and  _231
REMARK   96  A    between atoms: _231  and  _232
REMARK   97  A    between atoms: _231  and  _234
REMARK   98  A    between atoms: _234  and  _235
REMARK   99  A    between atoms: _238  and  _240
REMARK  100  A    between atoms: _240  and  _241
REMARK  101  A    between atoms: _240  and  _243
REMARK  102  A    between atoms: _243  and  _244
REMARK  103  A    between atoms: _247  and  _249
REMARK  104  A    between atoms: _249  and  _250
REMARK  105  A    between atoms: _249  and  _252
REMARK                            x       y       z     vdW  Elec       q    Type
REMARK                         _______ _______ _______ _____ _____    ______ ____
ROOT
ATOM      1  O   HOH     1      21.976   9.454  -7.641  0.00  0.00    +0.000 OA
ENDROOT
TORSDOF 0
REMARK  Name = ../refined-set-2016/4b2i/4b2i_pocket.pdb
REMARK  105 active torsions:
REMARK  status: ('A' for Active; 'I' for Inactive)
REMARK    1  A    between atoms: _1  and  _3
REMARK    2  A    between atoms: _3  and  _4
REMARK    3  A    between atoms: _3  and  _6
REMARK    4  A    between atoms: _9  and  _11
REMARK    5  A    between atoms: _11  and  _12
REMARK    6  A    between atoms: _11  and  _14
REMARK    7  A    between atoms: _14  and  _15
REMARK    8  A    between atoms: _15  and  _16
REMARK    9  A    between atoms: _18  and  _20
REMARK   10  A    between atoms: _20  and  _21
REMARK   11  A    between atoms: _20  and  _23
REMARK   12  A    between atoms: _23  and  _24
REMARK   13  A    between atoms: _34  and  _36
REMARK   14  A    between atoms: _36  and  _37
REMARK   15  A    between atoms: _36  and  _39
REMARK   16  A    between atoms: _39  and  _40
REMARK   17  A    between atoms: _43  and  _45
REMARK   18  A    between atoms: _45  and  _46
REMARK   19  A    between atoms: _45  and  _48
REMARK   20  A    between atoms: _48  and  _49
REMARK   21  A    between atoms: _52  and  _54
REMARK   22  A    between atoms: _54  and  _55
REMARK   23  A    between atoms: _54  and  _57
REMARK   24  A    between atoms: _57  and  _58
REMARK   25  A    between atoms: _61  and  _63
REMARK   26  A    between atoms: _63  and  _64
REMARK   27  A    between atoms: _67  and  _69
REMARK   28  A    between atoms: _69  and  _70
REMARK   29  A    between atoms: _69  and  _72
REMARK   30  A    between atoms: _72  and  _73
REMARK   31  A    between atoms: _78  and  _79
REMARK   32  A    between atoms: _81  and  _83
REMARK   33  A    between atoms: _83  and  _84
REMARK   34  A    between atoms: _87  and  _89
REMARK   35  A    between atoms: _89  and  _90
REMARK   36  A    between atoms: _89  and  _92
REMARK   37  A    between atoms: _92  and  _93
REMARK   38  A    between atoms: _93  and  _94
REMARK   39  A    between atoms: _94  and  _95
REMARK   40  A    between atoms: _104  and  _106
REMARK   41  A    between atoms: _106  and  _107
REMARK   42  A    between atoms: _106  and  _109
REMARK   43  A    between atoms: _109  and  _110
REMARK   44  A    between atoms: _115  and  _117
REMARK   45  A    between atoms: _117  and  _118
REMARK   46  A    between atoms: _117  and  _120
REMARK   47  A    between atoms: _120  and  _121
REMARK   48  A    between atoms: _121  and  _122
REMARK   49  A    between atoms: _127  and  _129
REMARK   50  A    between atoms: _129  and  _130
REMARK   51  A    between atoms: _129  and  _132
REMARK   52  A    between atoms: _132  and  _133
REMARK   53  A    between atoms: _133  and  _134
REMARK   54  A    between atoms: _136  and  _138
REMARK   55  A    between atoms: _138  and  _139
REMARK   56  A    between atoms: _138  and  _141
REMARK   57  A    between atoms: _141  and  _142
REMARK   58  A    between atoms: _145  and  _147
REMARK   59  A    between atoms: _147  and  _148
REMARK   60  A    between atoms: _147  and  _150
REMARK   61  A    between atoms: _150  and  _151
REMARK   62  A    between atoms: _154  and  _156
REMARK   63  A    between atoms: _156  and  _157
REMARK   64  A    between atoms: _156  and  _159
REMARK   65  A    between atoms: _162  and  _164
REMARK   66  A    between atoms: _164  and  _165
REMARK   67  A    between atoms: _164  and  _167
REMARK   68  A    between atoms: _167  and  _168
REMARK   69  A    between atoms: _168  and  _169
REMARK   70  A    between atoms: _174  and  _176
REMARK   71  A    between atoms: _176  and  _177
REMARK   72  A    between atoms: _176  and  _179
REMARK   73  A    between atoms: _179  and  _180
REMARK   74  A    between atoms: _180  and  _181
REMARK   75  A    between atoms: _186  and  _188
REMARK   76  A    between atoms: _188  and  _189
REMARK   77  A    between atoms: _192  and  _194
REMARK   78  A    between atoms: _194  and  _195
REMARK   79  A    between atoms: _194  and  _197
REMARK   80  A    between atoms: _197  and  _198
REMARK   81  A    between atoms: _198  and  _199
REMARK   82  A    between atoms: _202  and  _204
REMARK   83  A    between atoms: _204  and  _205
REMARK   84  A    between atoms: _204  and  _207
REMARK   85  A    between atoms: _207  and  _208
REMARK   86  A    between atoms: _211  and  _213
REMARK   87  A    between atoms: _213  and  _214
REMARK   88  A    between atoms: _213  and  _216
REMARK   89  A    between atoms: _216  and  _217
REMARK   90  A    between atoms: _217  and  _218
REMARK   91  A    between atoms: _220  and  _222
REMARK   92  A    between atoms: _222  and  _223
REMARK   93  A    between atoms: _222  and  _225
REMARK   94  A    between atoms: _225  and  _226
REMARK   95  A    between atoms: _229  and  _231
REMARK   96  A    between atoms: _231  and  _232
REMARK   97  A    between atoms: _231  and  _234
REMARK   98  A    between atoms: _234  and  _235
REMARK   99  A    between atoms: _238  and  _240
REMARK  100  A    between atoms: _240  and  _241
REMARK  101  A    between atoms: _240  and  _243
REMARK  102  A    between atoms: _243  and  _244
REMARK  103  A    between atoms: _247  and  _249
REMARK  104  A    between atoms: _249  and  _250
REMARK  105  A    between atoms: _249  and  _252
REMARK                            x       y       z     vdW  Elec       q    Type
REMARK                         _______ _______ _______ _____ _____    ______ ____
ROOT
ATOM      1  O   HOH     1      21.250  -0.235  -7.448  0.00  0.00    +0.000 OA
ENDROOT
TORSDOF 0
REMARK  Name = ../refined-set-2016/4b2i/4b2i_pocket.pdb
REMARK  105 active torsions:
REMARK  status: ('A' for Active; 'I' for Inactive)
REMARK    1  A    between atoms: _1  and  _3
REMARK    2  A    between atoms: _3  and  _4
REMARK    3  A    between atoms: _3  and  _6
REMARK    4  A    between atoms: _9  and  _11
REMARK    5  A    between atoms: _11  and  _12
REMARK    6  A    between atoms: _11  and  _14
REMARK    7  A    between atoms: _14  and  _15
REMARK    8  A    between atoms: _15  and  _16
REMARK    9  A    between atoms: _18  and  _20
REMARK   10  A    between atoms: _20  and  _21
REMARK   11  A    between atoms: _20  and  _23
REMARK   12  A    between atoms: _23  and  _24
REMARK   13  A    between atoms: _34  and  _36
REMARK   14  A    between atoms: _36  and  _37
REMARK   15  A    between atoms: _36  and  _39
REMARK   16  A    between atoms: _39  and  _40
REMARK   17  A    between atoms: _43  and  _45
REMARK   18  A    between atoms: _45  and  _46
REMARK   19  A    between atoms: _45  and  _48
REMARK   20  A    between atoms: _48  and  _49
REMARK   21  A    between atoms: _52  and  _54
REMARK   22  A    between atoms: _54  and  _55
REMARK   23  A    between atoms: _54  and  _57
REMARK   24  A    between atoms: _57  and  _58
REMARK   25  A    between atoms: _61  and  _63
REMARK   26  A    between atoms: _63  and  _64
REMARK   27  A    between atoms: _67  and  _69
REMARK   28  A    between atoms: _69  and  _70
REMARK   29  A    between atoms: _69  and  _72
REMARK   30  A    between atoms: _72  and  _73
REMARK   31  A    between atoms: _78  and  _79
REMARK   32  A    between atoms: _81  and  _83
REMARK   33  A    between atoms: _83  and  _84
REMARK   34  A    between atoms: _87  and  _89
REMARK   35  A    between atoms: _89  and  _90
REMARK   36  A    between atoms: _89  and  _92
REMARK   37  A    between atoms: _92  and  _93
REMARK   38  A    between atoms: _93  and  _94
REMARK   39  A    between atoms: _94  and  _95
REMARK   40  A    between atoms: _104  and  _106
REMARK   41  A    between atoms: _106  and  _107
REMARK   42  A    between atoms: _106  and  _109
REMARK   43  A    between atoms: _109  and  _110
REMARK   44  A    between atoms: _115  and  _117
REMARK   45  A    between atoms: _117  and  _118
REMARK   46  A    between atoms: _117  and  _120
REMARK   47  A    between atoms: _120  and  _121
REMARK   48  A    between atoms: _121  and  _122
REMARK   49  A    between atoms: _127  and  _129
REMARK   50  A    between atoms: _129  and  _130
REMARK   51  A    between atoms: _129  and  _132
REMARK   52  A    between atoms: _132  and  _133
REMARK   53  A    between atoms: _133  and  _134
REMARK   54  A    between atoms: _136  and  _138
REMARK   55  A    between atoms: _138  and  _139
REMARK   56  A    between atoms: _138  and  _141
REMARK   57  A    between atoms: _141  and  _142
REMARK   58  A    between atoms: _145  and  _147
REMARK   59  A    between atoms: _147  and  _148
REMARK   60  A    between atoms: _147  and  _150
REMARK   61  A    between atoms: _150  and  _151
REMARK   62  A    between atoms: _154  and  _156
REMARK   63  A    between atoms: _156  and  _157
REMARK   64  A    between atoms: _156  and  _159
REMARK   65  A    between atoms: _162  and  _164
REMARK   66  A    between atoms: _164  and  _165
REMARK   67  A    between atoms: _164  and  _167
REMARK   68  A    between atoms: _167  and  _168
REMARK   69  A    between atoms: _168  and  _169
REMARK   70  A    between atoms: _174  and  _176
REMARK   71  A    between atoms: _176  and  _177
REMARK   72  A    between atoms: _176  and  _179
REMARK   73  A    between atoms: _179  and  _180
REMARK   74  A    between atoms: _180  and  _181
REMARK   75  A    between atoms: _186  and  _188
REMARK   76  A    between atoms: _188  and  _189
REMARK   77  A    between atoms: _192  and  _194
REMARK   78  A    between atoms: _194  and  _195
REMARK   79  A    between atoms: _194  and  _197
REMARK   80  A    between atoms: _197  and  _198
REMARK   81  A    between atoms: _198  and  _199
REMARK   82  A    between atoms: _202  and  _204
REMARK   83  A    between atoms: _204  and  _205
REMARK   84  A    between atoms: _204  and  _207
REMARK   85  A    between atoms: _207  and  _208
REMARK   86  A    between atoms: _211  and  _213
REMARK   87  A    between atoms: _213  and  _214
REMARK   88  A    between atoms: _213  and  _216
REMARK   89  A    between atoms: _216  and  _217
REMARK   90  A    between atoms: _217  and  _218
REMARK   91  A    between atoms: _220  and  _222
REMARK   92  A    between atoms: _222  and  _223
REMARK   93  A    between atoms: _222  and  _225
REMARK   94  A    between atoms: _225  and  _226
REMARK   95  A    between atoms: _229  and  _231
REMARK   96  A    between atoms: _231  and  _232
REMARK   97  A    between atoms: _231  and  _234
REMARK   98  A    between atoms: _234  and  _235
REMARK   99  A    between atoms: _238  and  _240
REMARK  100  A    between atoms: _240  and  _241
REMARK  101  A    between atoms: _240  and  _243
REMARK  102  A    between atoms: _243  and  _244
REMARK  103  A    between atoms: _247  and  _249
REMARK  104  A    between atoms: _249  and  _250
REMARK  105  A    between atoms: _249  and  _252
REMARK                            x       y       z     vdW  Elec       q    Type
REMARK                         _______ _______ _______ _____ _____    ______ ____
ROOT
ATOM      1  O   HOH     1      23.807   0.642  -3.101  0.00  0.00    +0.000 OA
ENDROOT
TORSDOF 0
REMARK  Name = ../refined-set-2016/4b2i/4b2i_pocket.pdb
REMARK  105 active torsions:
REMARK  status: ('A' for Active; 'I' for Inactive)
REMARK    1  A    between atoms: _1  and  _3
REMARK    2  A    between atoms: _3  and  _4
REMARK    3  A    between atoms: _3  and  _6
REMARK    4  A    between atoms: _9  and  _11
REMARK    5  A    between atoms: _11  and  _12
REMARK    6  A    between atoms: _11  and  _14
REMARK    7  A    between atoms: _14  and  _15
REMARK    8  A    between atoms: _15  and  _16
REMARK    9  A    between atoms: _18  and  _20
REMARK   10  A    between atoms: _20  and  _21
REMARK   11  A    between atoms: _20  and  _23
REMARK   12  A    between atoms: _23  and  _24
REMARK   13  A    between atoms: _34  and  _36
REMARK   14  A    between atoms: _36  and  _37
REMARK   15  A    between atoms: _36  and  _39
REMARK   16  A    between atoms: _39  and  _40
REMARK   17  A    between atoms: _43  and  _45
REMARK   18  A    between atoms: _45  and  _46
REMARK   19  A    between atoms: _45  and  _48
REMARK   20  A    between atoms: _48  and  _49
REMARK   21  A    between atoms: _52  and  _54
REMARK   22  A    between atoms: _54  and  _55
REMARK   23  A    between atoms: _54  and  _57
REMARK   24  A    between atoms: _57  and  _58
REMARK   25  A    between atoms: _61  and  _63
REMARK   26  A    between atoms: _63  and  _64
REMARK   27  A    between atoms: _67  and  _69
REMARK   28  A    between atoms: _69  and  _70
REMARK   29  A    between atoms: _69  and  _72
REMARK   30  A    between atoms: _72  and  _73
REMARK   31  A    between atoms: _78  and  _79
REMARK   32  A    between atoms: _81  and  _83
REMARK   33  A    between atoms: _83  and  _84
REMARK   34  A    between atoms: _87  and  _89
REMARK   35  A    between atoms: _89  and  _90
REMARK   36  A    between atoms: _89  and  _92
REMARK   37  A    between atoms: _92  and  _93
REMARK   38  A    between atoms: _93  and  _94
REMARK   39  A    between atoms: _94  and  _95
REMARK   40  A    between atoms: _104  and  _106
REMARK   41  A    between atoms: _106  and  _107
REMARK   42  A    between atoms: _106  and  _109
REMARK   43  A    between atoms: _109  and  _110
REMARK   44  A    between atoms: _115  and  _117
REMARK   45  A    between atoms: _117  and  _118
REMARK   46  A    between atoms: _117  and  _120
REMARK   47  A    between atoms: _120  and  _121
REMARK   48  A    between atoms: _121  and  _122
REMARK   49  A    between atoms: _127  and  _129
REMARK   50  A    between atoms: _129  and  _130
REMARK   51  A    between atoms: _129  and  _132
REMARK   52  A    between atoms: _132  and  _133
REMARK   53  A    between atoms: _133  and  _134
REMARK   54  A    between atoms: _136  and  _138
REMARK   55  A    between atoms: _138  and  _139
REMARK   56  A    between atoms: _138  and  _141
REMARK   57  A    between atoms: _141  and  _142
REMARK   58  A    between atoms: _145  and  _147
REMARK   59  A    between atoms: _147  and  _148
REMARK   60  A    between atoms: _147  and  _150
REMARK   61  A    between atoms: _150  and  _151
REMARK   62  A    between atoms: _154  and  _156
REMARK   63  A    between atoms: _156  and  _157
REMARK   64  A    between atoms: _156  and  _159
REMARK   65  A    between atoms: _162  and  _164
REMARK   66  A    between atoms: _164  and  _165
REMARK   67  A    between atoms: _164  and  _167
REMARK   68  A    between atoms: _167  and  _168
REMARK   69  A    between atoms: _168  and  _169
REMARK   70  A    between atoms: _174  and  _176
REMARK   71  A    between atoms: _176  and  _177
REMARK   72  A    between atoms: _176  and  _179
REMARK   73  A    between atoms: _179  and  _180
REMARK   74  A    between atoms: _180  and  _181
REMARK   75  A    between atoms: _186  and  _188
REMARK   76  A    between atoms: _188  and  _189
REMARK   77  A    between atoms: _192  and  _194
REMARK   78  A    between atoms: _194  and  _195
REMARK   79  A    between atoms: _194  and  _197
REMARK   80  A    between atoms: _197  and  _198
REMARK   81  A    between atoms: _198  and  _199
REMARK   82  A    between atoms: _202  and  _204
REMARK   83  A    between atoms: _204  and  _205
REMARK   84  A    between atoms: _204  and  _207
REMARK   85  A    between atoms: _207  and  _208
REMARK   86  A    between atoms: _211  and  _213
REMARK   87  A    between atoms: _213  and  _214
REMARK   88  A    between atoms: _213  and  _216
REMARK   89  A    between atoms: _216  and  _217
REMARK   90  A    between atoms: _217  and  _218
REMARK   91  A    between atoms: _220  and  _222
REMARK   92  A    between atoms: _222  and  _223
REMARK   93  A    between atoms: _222  and  _225
REMARK   94  A    between atoms: _225  and  _226
REMARK   95  A    between atoms: _229  and  _231
REMARK   96  A    between atoms: _231  and  _232
REMARK   97  A    between atoms: _231  and  _234
REMARK   98  A    between atoms: _234  and  _235
REMARK   99  A    between atoms: _238  and  _240
REMARK  100  A    between atoms: _240  and  _241
REMARK  101  A    between atoms: _240  and  _243
REMARK  102  A    between atoms: _243  and  _244
REMARK  103  A    between atoms: _247  and  _249
REMARK  104  A    between atoms: _249  and  _250
REMARK  105  A    between atoms: _249  and  _252
REMARK                            x       y       z     vdW  Elec       q    Type
REMARK                         _______ _______ _______ _____ _____    ______ ____
ROOT
ATOM      1  O   HOH     1      23.538   3.163  -3.849  0.00  0.00    +0.000 OA
ENDROOT
TORSDOF 0
REMARK  Name = ../refined-set-2016/4b2i/4b2i_pocket.pdb
REMARK  105 active torsions:
REMARK  status: ('A' for Active; 'I' for Inactive)
REMARK    1  A    between atoms: _1  and  _3
REMARK    2  A    between atoms: _3  and  _4
REMARK    3  A    between atoms: _3  and  _6
REMARK    4  A    between atoms: _9  and  _11
REMARK    5  A    between atoms: _11  and  _12
REMARK    6  A    between atoms: _11  and  _14
REMARK    7  A    between atoms: _14  and  _15
REMARK    8  A    between atoms: _15  and  _16
REMARK    9  A    between atoms: _18  and  _20
REMARK   10  A    between atoms: _20  and  _21
REMARK   11  A    between atoms: _20  and  _23
REMARK   12  A    between atoms: _23  and  _24
REMARK   13  A    between atoms: _34  and  _36
REMARK   14  A    between atoms: _36  and  _37
REMARK   15  A    between atoms: _36  and  _39
REMARK   16  A    between atoms: _39  and  _40
REMARK   17  A    between atoms: _43  and  _45
REMARK   18  A    between atoms: _45  and  _46
REMARK   19  A    between atoms: _45  and  _48
REMARK   20  A    between atoms: _48  and  _49
REMARK   21  A    between atoms: _52  and  _54
REMARK   22  A    between atoms: _54  and  _55
REMARK   23  A    between atoms: _54  and  _57
REMARK   24  A    between atoms: _57  and  _58
REMARK   25  A    between atoms: _61  and  _63
REMARK   26  A    between atoms: _63  and  _64
REMARK   27  A    between atoms: _67  and  _69
REMARK   28  A    between atoms: _69  and  _70
REMARK   29  A    between atoms: _69  and  _72
REMARK   30  A    between atoms: _72  and  _73
REMARK   31  A    between atoms: _78  and  _79
REMARK   32  A    between atoms: _81  and  _83
REMARK   33  A    between atoms: _83  and  _84
REMARK   34  A    between atoms: _87  and  _89
REMARK   35  A    between atoms: _89  and  _90
REMARK   36  A    between atoms: _89  and  _92
REMARK   37  A    between atoms: _92  and  _93
REMARK   38  A    between atoms: _93  and  _94
REMARK   39  A    between atoms: _94  and  _95
REMARK   40  A    between atoms: _104  and  _106
REMARK   41  A    between atoms: _106  and  _107
REMARK   42  A    between atoms: _106  and  _109
REMARK   43  A    between atoms: _109  and  _110
REMARK   44  A    between atoms: _115  and  _117
REMARK   45  A    between atoms: _117  and  _118
REMARK   46  A    between atoms: _117  and  _120
REMARK   47  A    between atoms: _120  and  _121
REMARK   48  A    between atoms: _121  and  _122
REMARK   49  A    between atoms: _127  and  _129
REMARK   50  A    between atoms: _129  and  _130
REMARK   51  A    between atoms: _129  and  _132
REMARK   52  A    between atoms: _132  and  _133
REMARK   53  A    between atoms: _133  and  _134
REMARK   54  A    between atoms: _136  and  _138
REMARK   55  A    between atoms: _138  and  _139
REMARK   56  A    between atoms: _138  and  _141
REMARK   57  A    between atoms: _141  and  _142
REMARK   58  A    between atoms: _145  and  _147
REMARK   59  A    between atoms: _147  and  _148
REMARK   60  A    between atoms: _147  and  _150
REMARK   61  A    between atoms: _150  and  _151
REMARK   62  A    between atoms: _154  and  _156
REMARK   63  A    between atoms: _156  and  _157
REMARK   64  A    between atoms: _156  and  _159
REMARK   65  A    between atoms: _162  and  _164
REMARK   66  A    between atoms: _164  and  _165
REMARK   67  A    between atoms: _164  and  _167
REMARK   68  A    between atoms: _167  and  _168
REMARK   69  A    between atoms: _168  and  _169
REMARK   70  A    between atoms: _174  and  _176
REMARK   71  A    between atoms: _176  and  _177
REMARK   72  A    between atoms: _176  and  _179
REMARK   73  A    between atoms: _179  and  _180
REMARK   74  A    between atoms: _180  and  _181
REMARK   75  A    between atoms: _186  and  _188
REMARK   76  A    between atoms: _188  and  _189
REMARK   77  A    between atoms: _192  and  _194
REMARK   78  A    between atoms: _194  and  _195
REMARK   79  A    between atoms: _194  and  _197
REMARK   80  A    between atoms: _197  and  _198
REMARK   81  A    between atoms: _198  and  _199
REMARK   82  A    between atoms: _202  and  _204
REMARK   83  A    between atoms: _204  and  _205
REMARK   84  A    between atoms: _204  and  _207
REMARK   85  A    between atoms: _207  and  _208
REMARK   86  A    between atoms: _211  and  _213
REMARK   87  A    between atoms: _213  and  _214
REMARK   88  A    between atoms: _213  and  _216
REMARK   89  A    between atoms: _216  and  _217
REMARK   90  A    between atoms: _217  and  _218
REMARK   91  A    between atoms: _220  and  _222
REMARK   92  A    between atoms: _222  and  _223
REMARK   93  A    between atoms: _222  and  _225
REMARK   94  A    between atoms: _225  and  _226
REMARK   95  A    between atoms: _229  and  _231
REMARK   96  A    between atoms: _231  and  _232
REMARK   97  A    between atoms: _231  and  _234
REMARK   98  A    between atoms: _234  and  _235
REMARK   99  A    between atoms: _238  and  _240
REMARK  100  A    between atoms: _240  and  _241
REMARK  101  A    between atoms: _240  and  _243
REMARK  102  A    between atoms: _243  and  _244
REMARK  103  A    between atoms: _247  and  _249
REMARK  104  A    between atoms: _249  and  _250
REMARK  105  A    between atoms: _249  and  _252
REMARK                            x       y       z     vdW  Elec       q    Type
REMARK                         _______ _______ _______ _____ _____    ______ ____
ROOT
ATOM      1  O   HOH     1      23.588  12.511   1.031  0.00  0.00    +0.000 OA
ENDROOT
TORSDOF 0
REMARK  Name = ../refined-set-2016/4b2i/4b2i_pocket.pdb
REMARK  105 active torsions:
REMARK  status: ('A' for Active; 'I' for Inactive)
REMARK    1  A    between atoms: _1  and  _3
REMARK    2  A    between atoms: _3  and  _4
REMARK    3  A    between atoms: _3  and  _6
REMARK    4  A    between atoms: _9  and  _11
REMARK    5  A    between atoms: _11  and  _12
REMARK    6  A    between atoms: _11  and  _14
REMARK    7  A    between atoms: _14  and  _15
REMARK    8  A    between atoms: _15  and  _16
REMARK    9  A    between atoms: _18  and  _20
REMARK   10  A    between atoms: _20  and  _21
REMARK   11  A    between atoms: _20  and  _23
REMARK   12  A    between atoms: _23  and  _24
REMARK   13  A    between atoms: _34  and  _36
REMARK   14  A    between atoms: _36  and  _37
REMARK   15  A    between atoms: _36  and  _39
REMARK   16  A    between atoms: _39  and  _40
REMARK   17  A    between atoms: _43  and  _45
REMARK   18  A    between atoms: _45  and  _46
REMARK   19  A    between atoms: _45  and  _48
REMARK   20  A    between atoms: _48  and  _49
REMARK   21  A    between atoms: _52  and  _54
REMARK   22  A    between atoms: _54  and  _55
REMARK   23  A    between atoms: _54  and  _57
REMARK   24  A    between atoms: _57  and  _58
REMARK   25  A    between atoms: _61  and  _63
REMARK   26  A    between atoms: _63  and  _64
REMARK   27  A    between atoms: _67  and  _69
REMARK   28  A    between atoms: _69  and  _70
REMARK   29  A    between atoms: _69  and  _72
REMARK   30  A    between atoms: _72  and  _73
REMARK   31  A    between atoms: _78  and  _79
REMARK   32  A    between atoms: _81  and  _83
REMARK   33  A    between atoms: _83  and  _84
REMARK   34  A    between atoms: _87  and  _89
REMARK   35  A    between atoms: _89  and  _90
REMARK   36  A    between atoms: _89  and  _92
REMARK   37  A    between atoms: _92  and  _93
REMARK   38  A    between atoms: _93  and  _94
REMARK   39  A    between atoms: _94  and  _95
REMARK   40  A    between atoms: _104  and  _106
REMARK   41  A    between atoms: _106  and  _107
REMARK   42  A    between atoms: _106  and  _109
REMARK   43  A    between atoms: _109  and  _110
REMARK   44  A    between atoms: _115  and  _117
REMARK   45  A    between atoms: _117  and  _118
REMARK   46  A    between atoms: _117  and  _120
REMARK   47  A    between atoms: _120  and  _121
REMARK   48  A    between atoms: _121  and  _122
REMARK   49  A    between atoms: _127  and  _129
REMARK   50  A    between atoms: _129  and  _130
REMARK   51  A    between atoms: _129  and  _132
REMARK   52  A    between atoms: _132  and  _133
REMARK   53  A    between atoms: _133  and  _134
REMARK   54  A    between atoms: _136  and  _138
REMARK   55  A    between atoms: _138  and  _139
REMARK   56  A    between atoms: _138  and  _141
REMARK   57  A    between atoms: _141  and  _142
REMARK   58  A    between atoms: _145  and  _147
REMARK   59  A    between atoms: _147  and  _148
REMARK   60  A    between atoms: _147  and  _150
REMARK   61  A    between atoms: _150  and  _151
REMARK   62  A    between atoms: _154  and  _156
REMARK   63  A    between atoms: _156  and  _157
REMARK   64  A    between atoms: _156  and  _159
REMARK   65  A    between atoms: _162  and  _164
REMARK   66  A    between atoms: _164  and  _165
REMARK   67  A    between atoms: _164  and  _167
REMARK   68  A    between atoms: _167  and  _168
REMARK   69  A    between atoms: _168  and  _169
REMARK   70  A    between atoms: _174  and  _176
REMARK   71  A    between atoms: _176  and  _177
REMARK   72  A    between atoms: _176  and  _179
REMARK   73  A    between atoms: _179  and  _180
REMARK   74  A    between atoms: _180  and  _181
REMARK   75  A    between atoms: _186  and  _188
REMARK   76  A    between atoms: _188  and  _189
REMARK   77  A    between atoms: _192  and  _194
REMARK   78  A    between atoms: _194  and  _195
REMARK   79  A    between atoms: _194  and  _197
REMARK   80  A    between atoms: _197  and  _198
REMARK   81  A    between atoms: _198  and  _199
REMARK   82  A    between atoms: _202  and  _204
REMARK   83  A    between atoms: _204  and  _205
REMARK   84  A    between atoms: _204  and  _207
REMARK   85  A    between atoms: _207  and  _208
REMARK   86  A    between atoms: _211  and  _213
REMARK   87  A    between atoms: _213  and  _214
REMARK   88  A    between atoms: _213  and  _216
REMARK   89  A    between atoms: _216  and  _217
REMARK   90  A    between atoms: _217  and  _218
REMARK   91  A    between atoms: _220  and  _222
REMARK   92  A    between atoms: _222  and  _223
REMARK   93  A    between atoms: _222  and  _225
REMARK   94  A    between atoms: _225  and  _226
REMARK   95  A    between atoms: _229  and  _231
REMARK   96  A    between atoms: _231  and  _232
REMARK   97  A    between atoms: _231  and  _234
REMARK   98  A    between atoms: _234  and  _235
REMARK   99  A    between atoms: _238  and  _240
REMARK  100  A    between atoms: _240  and  _241
REMARK  101  A    between atoms: _240  and  _243
REMARK  102  A    between atoms: _243  and  _244
REMARK  103  A    between atoms: _247  and  _249
REMARK  104  A    between atoms: _249  and  _250
REMARK  105  A    between atoms: _249  and  _252
REMARK                            x       y       z     vdW  Elec       q    Type
REMARK                         _______ _______ _______ _____ _____    ______ ____
ROOT
ATOM      1  O   HOH     1      25.101   9.851   1.904  0.00  0.00    +0.000 OA
ENDROOT
TORSDOF 0
REMARK  Name = ../refined-set-2016/4b2i/4b2i_pocket.pdb
REMARK  105 active torsions:
REMARK  status: ('A' for Active; 'I' for Inactive)
REMARK    1  A    between atoms: _1  and  _3
REMARK    2  A    between atoms: _3  and  _4
REMARK    3  A    between atoms: _3  and  _6
REMARK    4  A    between atoms: _9  and  _11
REMARK    5  A    between atoms: _11  and  _12
REMARK    6  A    between atoms: _11  and  _14
REMARK    7  A    between atoms: _14  and  _15
REMARK    8  A    between atoms: _15  and  _16
REMARK    9  A    between atoms: _18  and  _20
REMARK   10  A    between atoms: _20  and  _21
REMARK   11  A    between atoms: _20  and  _23
REMARK   12  A    between atoms: _23  and  _24
REMARK   13  A    between atoms: _34  and  _36
REMARK   14  A    between atoms: _36  and  _37
REMARK   15  A    between atoms: _36  and  _39
REMARK   16  A    between atoms: _39  and  _40
REMARK   17  A    between atoms: _43  and  _45
REMARK   18  A    between atoms: _45  and  _46
REMARK   19  A    between atoms: _45  and  _48
REMARK   20  A    between atoms: _48  and  _49
REMARK   21  A    between atoms: _52  and  _54
REMARK   22  A    between atoms: _54  and  _55
REMARK   23  A    between atoms: _54  and  _57
REMARK   24  A    between atoms: _57  and  _58
REMARK   25  A    between atoms: _61  and  _63
REMARK   26  A    between atoms: _63  and  _64
REMARK   27  A    between atoms: _67  and  _69
REMARK   28  A    between atoms: _69  and  _70
REMARK   29  A    between atoms: _69  and  _72
REMARK   30  A    between atoms: _72  and  _73
REMARK   31  A    between atoms: _78  and  _79
REMARK   32  A    between atoms: _81  and  _83
REMARK   33  A    between atoms: _83  and  _84
REMARK   34  A    between atoms: _87  and  _89
REMARK   35  A    between atoms: _89  and  _90
REMARK   36  A    between atoms: _89  and  _92
REMARK   37  A    between atoms: _92  and  _93
REMARK   38  A    between atoms: _93  and  _94
REMARK   39  A    between atoms: _94  and  _95
REMARK   40  A    between atoms: _104  and  _106
REMARK   41  A    between atoms: _106  and  _107
REMARK   42  A    between atoms: _106  and  _109
REMARK   43  A    between atoms: _109  and  _110
REMARK   44  A    between atoms: _115  and  _117
REMARK   45  A    between atoms: _117  and  _118
REMARK   46  A    between atoms: _117  and  _120
REMARK   47  A    between atoms: _120  and  _121
REMARK   48  A    between atoms: _121  and  _122
REMARK   49  A    between atoms: _127  and  _129
REMARK   50  A    between atoms: _129  and  _130
REMARK   51  A    between atoms: _129  and  _132
REMARK   52  A    between atoms: _132  and  _133
REMARK   53  A    between atoms: _133  and  _134
REMARK   54  A    between atoms: _136  and  _138
REMARK   55  A    between atoms: _138  and  _139
REMARK   56  A    between atoms: _138  and  _141
REMARK   57  A    between atoms: _141  and  _142
REMARK   58  A    between atoms: _145  and  _147
REMARK   59  A    between atoms: _147  and  _148
REMARK   60  A    between atoms: _147  and  _150
REMARK   61  A    between atoms: _150  and  _151
REMARK   62  A    between atoms: _154  and  _156
REMARK   63  A    between atoms: _156  and  _157
REMARK   64  A    between atoms: _156  and  _159
REMARK   65  A    between atoms: _162  and  _164
REMARK   66  A    between atoms: _164  and  _165
REMARK   67  A    between atoms: _164  and  _167
REMARK   68  A    between atoms: _167  and  _168
REMARK   69  A    between atoms: _168  and  _169
REMARK   70  A    between atoms: _174  and  _176
REMARK   71  A    between atoms: _176  and  _177
REMARK   72  A    between atoms: _176  and  _179
REMARK   73  A    between atoms: _179  and  _180
REMARK   74  A    between atoms: _180  and  _181
REMARK   75  A    between atoms: _186  and  _188
REMARK   76  A    between atoms: _188  and  _189
REMARK   77  A    between atoms: _192  and  _194
REMARK   78  A    between atoms: _194  and  _195
REMARK   79  A    between atoms: _194  and  _197
REMARK   80  A    between atoms: _197  and  _198
REMARK   81  A    between atoms: _198  and  _199
REMARK   82  A    between atoms: _202  and  _204
REMARK   83  A    between atoms: _204  and  _205
REMARK   84  A    between atoms: _204  and  _207
REMARK   85  A    between atoms: _207  and  _208
REMARK   86  A    between atoms: _211  and  _213
REMARK   87  A    between atoms: _213  and  _214
REMARK   88  A    between atoms: _213  and  _216
REMARK   89  A    between atoms: _216  and  _217
REMARK   90  A    between atoms: _217  and  _218
REMARK   91  A    between atoms: _220  and  _222
REMARK   92  A    between atoms: _222  and  _223
REMARK   93  A    between atoms: _222  and  _225
REMARK   94  A    between atoms: _225  and  _226
REMARK   95  A    between atoms: _229  and  _231
REMARK   96  A    between atoms: _231  and  _232
REMARK   97  A    between atoms: _231  and  _234
REMARK   98  A    between atoms: _234  and  _235
REMARK   99  A    between atoms: _238  and  _240
REMARK  100  A    between atoms: _240  and  _241
REMARK  101  A    between atoms: _240  and  _243
REMARK  102  A    between atoms: _243  and  _244
REMARK  103  A    between atoms: _247  and  _249
REMARK  104  A    between atoms: _249  and  _250
REMARK  105  A    between atoms: _249  and  _252
REMARK                            x       y       z     vdW  Elec       q    Type
REMARK                         _______ _______ _______ _____ _____    ______ ____
ROOT
ATOM      1  O   HOH     1      19.681   9.388  -6.467  0.00  0.00    +0.000 OA
ENDROOT
TORSDOF 0
REMARK  Name = ../refined-set-2016/4b2i/4b2i_pocket.pdb
REMARK  105 active torsions:
REMARK  status: ('A' for Active; 'I' for Inactive)
REMARK    1  A    between atoms: _1  and  _3
REMARK    2  A    between atoms: _3  and  _4
REMARK    3  A    between atoms: _3  and  _6
REMARK    4  A    between atoms: _9  and  _11
REMARK    5  A    between atoms: _11  and  _12
REMARK    6  A    between atoms: _11  and  _14
REMARK    7  A    between atoms: _14  and  _15
REMARK    8  A    between atoms: _15  and  _16
REMARK    9  A    between atoms: _18  and  _20
REMARK   10  A    between atoms: _20  and  _21
REMARK   11  A    between atoms: _20  and  _23
REMARK   12  A    between atoms: _23  and  _24
REMARK   13  A    between atoms: _34  and  _36
REMARK   14  A    between atoms: _36  and  _37
REMARK   15  A    between atoms: _36  and  _39
REMARK   16  A    between atoms: _39  and  _40
REMARK   17  A    between atoms: _43  and  _45
REMARK   18  A    between atoms: _45  and  _46
REMARK   19  A    between atoms: _45  and  _48
REMARK   20  A    between atoms: _48  and  _49
REMARK   21  A    between atoms: _52  and  _54
REMARK   22  A    between atoms: _54  and  _55
REMARK   23  A    between atoms: _54  and  _57
REMARK   24  A    between atoms: _57  and  _58
REMARK   25  A    between atoms: _61  and  _63
REMARK   26  A    between atoms: _63  and  _64
REMARK   27  A    between atoms: _67  and  _69
REMARK   28  A    between atoms: _69  and  _70
REMARK   29  A    between atoms: _69  and  _72
REMARK   30  A    between atoms: _72  and  _73
REMARK   31  A    between atoms: _78  and  _79
REMARK   32  A    between atoms: _81  and  _83
REMARK   33  A    between atoms: _83  and  _84
REMARK   34  A    between atoms: _87  and  _89
REMARK   35  A    between atoms: _89  and  _90
REMARK   36  A    between atoms: _89  and  _92
REMARK   37  A    between atoms: _92  and  _93
REMARK   38  A    between atoms: _93  and  _94
REMARK   39  A    between atoms: _94  and  _95
REMARK   40  A    between atoms: _104  and  _106
REMARK   41  A    between atoms: _106  and  _107
REMARK   42  A    between atoms: _106  and  _109
REMARK   43  A    between atoms: _109  and  _110
REMARK   44  A    between atoms: _115  and  _117
REMARK   45  A    between atoms: _117  and  _118
REMARK   46  A    between atoms: _117  and  _120
REMARK   47  A    between atoms: _120  and  _121
REMARK   48  A    between atoms: _121  and  _122
REMARK   49  A    between atoms: _127  and  _129
REMARK   50  A    between atoms: _129  and  _130
REMARK   51  A    between atoms: _129  and  _132
REMARK   52  A    between atoms: _132  and  _133
REMARK   53  A    between atoms: _133  and  _134
REMARK   54  A    between atoms: _136  and  _138
REMARK   55  A    between atoms: _138  and  _139
REMARK   56  A    between atoms: _138  and  _141
REMARK   57  A    between atoms: _141  and  _142
REMARK   58  A    between atoms: _145  and  _147
REMARK   59  A    between atoms: _147  and  _148
REMARK   60  A    between atoms: _147  and  _150
REMARK   61  A    between atoms: _150  and  _151
REMARK   62  A    between atoms: _154  and  _156
REMARK   63  A    between atoms: _156  and  _157
REMARK   64  A    between atoms: _156  and  _159
REMARK   65  A    between atoms: _162  and  _164
REMARK   66  A    between atoms: _164  and  _165
REMARK   67  A    between atoms: _164  and  _167
REMARK   68  A    between atoms: _167  and  _168
REMARK   69  A    between atoms: _168  and  _169
REMARK   70  A    between atoms: _174  and  _176
REMARK   71  A    between atoms: _176  and  _177
REMARK   72  A    between atoms: _176  and  _179
REMARK   73  A    between atoms: _179  and  _180
REMARK   74  A    between atoms: _180  and  _181
REMARK   75  A    between atoms: _186  and  _188
REMARK   76  A    between atoms: _188  and  _189
REMARK   77  A    between atoms: _192  and  _194
REMARK   78  A    between atoms: _194  and  _195
REMARK   79  A    between atoms: _194  and  _197
REMARK   80  A    between atoms: _197  and  _198
REMARK   81  A    between atoms: _198  and  _199
REMARK   82  A    between atoms: _202  and  _204
REMARK   83  A    between atoms: _204  and  _205
REMARK   84  A    between atoms: _204  and  _207
REMARK   85  A    between atoms: _207  and  _208
REMARK   86  A    between atoms: _211  and  _213
REMARK   87  A    between atoms: _213  and  _214
REMARK   88  A    between atoms: _213  and  _216
REMARK   89  A    between atoms: _216  and  _217
REMARK   90  A    between atoms: _217  and  _218
REMARK   91  A    between atoms: _220  and  _222
REMARK   92  A    between atoms: _222  and  _223
REMARK   93  A    between atoms: _222  and  _225
REMARK   94  A    between atoms: _225  and  _226
REMARK   95  A    between atoms: _229  and  _231
REMARK   96  A    between atoms: _231  and  _232
REMARK   97  A    between atoms: _231  and  _234
REMARK   98  A    between atoms: _234  and  _235
REMARK   99  A    between atoms: _238  and  _240
REMARK  100  A    between atoms: _240  and  _241
REMARK  101  A    between atoms: _240  and  _243
REMARK  102  A    between atoms: _243  and  _244
REMARK  103  A    between atoms: _247  and  _249
REMARK  104  A    between atoms: _249  and  _250
REMARK  105  A    between atoms: _249  and  _252
REMARK                            x       y       z     vdW  Elec       q    Type
REMARK                         _______ _______ _______ _____ _____    ______ ____
ROOT
ATOM      1  O   HOH     1      22.197  15.837  -1.236  0.00  0.00    +0.000 OA
ENDROOT
TORSDOF 0
REMARK  Name = ../refined-set-2016/4b2i/4b2i_pocket.pdb
REMARK  105 active torsions:
REMARK  status: ('A' for Active; 'I' for Inactive)
REMARK    1  A    between atoms: _1  and  _3
REMARK    2  A    between atoms: _3  and  _4
REMARK    3  A    between atoms: _3  and  _6
REMARK    4  A    between atoms: _9  and  _11
REMARK    5  A    between atoms: _11  and  _12
REMARK    6  A    between atoms: _11  and  _14
REMARK    7  A    between atoms: _14  and  _15
REMARK    8  A    between atoms: _15  and  _16
REMARK    9  A    between atoms: _18  and  _20
REMARK   10  A    between atoms: _20  and  _21
REMARK   11  A    between atoms: _20  and  _23
REMARK   12  A    between atoms: _23  and  _24
REMARK   13  A    between atoms: _34  and  _36
REMARK   14  A    between atoms: _36  and  _37
REMARK   15  A    between atoms: _36  and  _39
REMARK   16  A    between atoms: _39  and  _40
REMARK   17  A    between atoms: _43  and  _45
REMARK   18  A    between atoms: _45  and  _46
REMARK   19  A    between atoms: _45  and  _48
REMARK   20  A    between atoms: _48  and  _49
REMARK   21  A    between atoms: _52  and  _54
REMARK   22  A    between atoms: _54  and  _55
REMARK   23  A    between atoms: _54  and  _57
REMARK   24  A    between atoms: _57  and  _58
REMARK   25  A    between atoms: _61  and  _63
REMARK   26  A    between atoms: _63  and  _64
REMARK   27  A    between atoms: _67  and  _69
REMARK   28  A    between atoms: _69  and  _70
REMARK   29  A    between atoms: _69  and  _72
REMARK   30  A    between atoms: _72  and  _73
REMARK   31  A    between atoms: _78  and  _79
REMARK   32  A    between atoms: _81  and  _83
REMARK   33  A    between atoms: _83  and  _84
REMARK   34  A    between atoms: _87  and  _89
REMARK   35  A    between atoms: _89  and  _90
REMARK   36  A    between atoms: _89  and  _92
REMARK   37  A    between atoms: _92  and  _93
REMARK   38  A    between atoms: _93  and  _94
REMARK   39  A    between atoms: _94  and  _95
REMARK   40  A    between atoms: _104  and  _106
REMARK   41  A    between atoms: _106  and  _107
REMARK   42  A    between atoms: _106  and  _109
REMARK   43  A    between atoms: _109  and  _110
REMARK   44  A    between atoms: _115  and  _117
REMARK   45  A    between atoms: _117  and  _118
REMARK   46  A    between atoms: _117  and  _120
REMARK   47  A    between atoms: _120  and  _121
REMARK   48  A    between atoms: _121  and  _122
REMARK   49  A    between atoms: _127  and  _129
REMARK   50  A    between atoms: _129  and  _130
REMARK   51  A    between atoms: _129  and  _132
REMARK   52  A    between atoms: _132  and  _133
REMARK   53  A    between atoms: _133  and  _134
REMARK   54  A    between atoms: _136  and  _138
REMARK   55  A    between atoms: _138  and  _139
REMARK   56  A    between atoms: _138  and  _141
REMARK   57  A    between atoms: _141  and  _142
REMARK   58  A    between atoms: _145  and  _147
REMARK   59  A    between atoms: _147  and  _148
REMARK   60  A    between atoms: _147  and  _150
REMARK   61  A    between atoms: _150  and  _151
REMARK   62  A    between atoms: _154  and  _156
REMARK   63  A    between atoms: _156  and  _157
REMARK   64  A    between atoms: _156  and  _159
REMARK   65  A    between atoms: _162  and  _164
REMARK   66  A    between atoms: _164  and  _165
REMARK   67  A    between atoms: _164  and  _167
REMARK   68  A    between atoms: _167  and  _168
REMARK   69  A    between atoms: _168  and  _169
REMARK   70  A    between atoms: _174  and  _176
REMARK   71  A    between atoms: _176  and  _177
REMARK   72  A    between atoms: _176  and  _179
REMARK   73  A    between atoms: _179  and  _180
REMARK   74  A    between atoms: _180  and  _181
REMARK   75  A    between atoms: _186  and  _188
REMARK   76  A    between atoms: _188  and  _189
REMARK   77  A    between atoms: _192  and  _194
REMARK   78  A    between atoms: _194  and  _195
REMARK   79  A    between atoms: _194  and  _197
REMARK   80  A    between atoms: _197  and  _198
REMARK   81  A    between atoms: _198  and  _199
REMARK   82  A    between atoms: _202  and  _204
REMARK   83  A    between atoms: _204  and  _205
REMARK   84  A    between atoms: _204  and  _207
REMARK   85  A    between atoms: _207  and  _208
REMARK   86  A    between atoms: _211  and  _213
REMARK   87  A    between atoms: _213  and  _214
REMARK   88  A    between atoms: _213  and  _216
REMARK   89  A    between atoms: _216  and  _217
REMARK   90  A    between atoms: _217  and  _218
REMARK   91  A    between atoms: _220  and  _222
REMARK   92  A    between atoms: _222  and  _223
REMARK   93  A    between atoms: _222  and  _225
REMARK   94  A    between atoms: _225  and  _226
REMARK   95  A    between atoms: _229  and  _231
REMARK   96  A    between atoms: _231  and  _232
REMARK   97  A    between atoms: _231  and  _234
REMARK   98  A    between atoms: _234  and  _235
REMARK   99  A    between atoms: _238  and  _240
REMARK  100  A    between atoms: _240  and  _241
REMARK  101  A    between atoms: _240  and  _243
REMARK  102  A    between atoms: _243  and  _244
REMARK  103  A    between atoms: _247  and  _249
REMARK  104  A    between atoms: _249  and  _250
REMARK  105  A    between atoms: _249  and  _252
REMARK                            x       y       z     vdW  Elec       q    Type
REMARK                         _______ _______ _______ _____ _____    ______ ____
ROOT
ATOM      1  O   HOH     1      24.652  10.123  -0.817  0.00  0.00    +0.000 OA
ENDROOT
TORSDOF 0
REMARK  Name = ../refined-set-2016/4b2i/4b2i_pocket.pdb
REMARK  105 active torsions:
REMARK  status: ('A' for Active; 'I' for Inactive)
REMARK    1  A    between atoms: _1  and  _3
REMARK    2  A    between atoms: _3  and  _4
REMARK    3  A    between atoms: _3  and  _6
REMARK    4  A    between atoms: _9  and  _11
REMARK    5  A    between atoms: _11  and  _12
REMARK    6  A    between atoms: _11  and  _14
REMARK    7  A    between atoms: _14  and  _15
REMARK    8  A    between atoms: _15  and  _16
REMARK    9  A    between atoms: _18  and  _20
REMARK   10  A    between atoms: _20  and  _21
REMARK   11  A    between atoms: _20  and  _23
REMARK   12  A    between atoms: _23  and  _24
REMARK   13  A    between atoms: _34  and  _36
REMARK   14  A    between atoms: _36  and  _37
REMARK   15  A    between atoms: _36  and  _39
REMARK   16  A    between atoms: _39  and  _40
REMARK   17  A    between atoms: _43  and  _45
REMARK   18  A    between atoms: _45  and  _46
REMARK   19  A    between atoms: _45  and  _48
REMARK   20  A    between atoms: _48  and  _49
REMARK   21  A    between atoms: _52  and  _54
REMARK   22  A    between atoms: _54  and  _55
REMARK   23  A    between atoms: _54  and  _57
REMARK   24  A    between atoms: _57  and  _58
REMARK   25  A    between atoms: _61  and  _63
REMARK   26  A    between atoms: _63  and  _64
REMARK   27  A    between atoms: _67  and  _69
REMARK   28  A    between atoms: _69  and  _70
REMARK   29  A    between atoms: _69  and  _72
REMARK   30  A    between atoms: _72  and  _73
REMARK   31  A    between atoms: _78  and  _79
REMARK   32  A    between atoms: _81  and  _83
REMARK   33  A    between atoms: _83  and  _84
REMARK   34  A    between atoms: _87  and  _89
REMARK   35  A    between atoms: _89  and  _90
REMARK   36  A    between atoms: _89  and  _92
REMARK   37  A    between atoms: _92  and  _93
REMARK   38  A    between atoms: _93  and  _94
REMARK   39  A    between atoms: _94  and  _95
REMARK   40  A    between atoms: _104  and  _106
REMARK   41  A    between atoms: _106  and  _107
REMARK   42  A    between atoms: _106  and  _109
REMARK   43  A    between atoms: _109  and  _110
REMARK   44  A    between atoms: _115  and  _117
REMARK   45  A    between atoms: _117  and  _118
REMARK   46  A    between atoms: _117  and  _120
REMARK   47  A    between atoms: _120  and  _121
REMARK   48  A    between atoms: _121  and  _122
REMARK   49  A    between atoms: _127  and  _129
REMARK   50  A    between atoms: _129  and  _130
REMARK   51  A    between atoms: _129  and  _132
REMARK   52  A    between atoms: _132  and  _133
REMARK   53  A    between atoms: _133  and  _134
REMARK   54  A    between atoms: _136  and  _138
REMARK   55  A    between atoms: _138  and  _139
REMARK   56  A    between atoms: _138  and  _141
REMARK   57  A    between atoms: _141  and  _142
REMARK   58  A    between atoms: _145  and  _147
REMARK   59  A    between atoms: _147  and  _148
REMARK   60  A    between atoms: _147  and  _150
REMARK   61  A    between atoms: _150  and  _151
REMARK   62  A    between atoms: _154  and  _156
REMARK   63  A    between atoms: _156  and  _157
REMARK   64  A    between atoms: _156  and  _159
REMARK   65  A    between atoms: _162  and  _164
REMARK   66  A    between atoms: _164  and  _165
REMARK   67  A    between atoms: _164  and  _167
REMARK   68  A    between atoms: _167  and  _168
REMARK   69  A    between atoms: _168  and  _169
REMARK   70  A    between atoms: _174  and  _176
REMARK   71  A    between atoms: _176  and  _177
REMARK   72  A    between atoms: _176  and  _179
REMARK   73  A    between atoms: _179  and  _180
REMARK   74  A    between atoms: _180  and  _181
REMARK   75  A    between atoms: _186  and  _188
REMARK   76  A    between atoms: _188  and  _189
REMARK   77  A    between atoms: _192  and  _194
REMARK   78  A    between atoms: _194  and  _195
REMARK   79  A    between atoms: _194  and  _197
REMARK   80  A    between atoms: _197  and  _198
REMARK   81  A    between atoms: _198  and  _199
REMARK   82  A    between atoms: _202  and  _204
REMARK   83  A    between atoms: _204  and  _205
REMARK   84  A    between atoms: _204  and  _207
REMARK   85  A    between atoms: _207  and  _208
REMARK   86  A    between atoms: _211  and  _213
REMARK   87  A    between atoms: _213  and  _214
REMARK   88  A    between atoms: _213  and  _216
REMARK   89  A    between atoms: _216  and  _217
REMARK   90  A    between atoms: _217  and  _218
REMARK   91  A    between atoms: _220  and  _222
REMARK   92  A    between atoms: _222  and  _223
REMARK   93  A    between atoms: _222  and  _225
REMARK   94  A    between atoms: _225  and  _226
REMARK   95  A    between atoms: _229  and  _231
REMARK   96  A    between atoms: _231  and  _232
REMARK   97  A    between atoms: _231  and  _234
REMARK   98  A    between atoms: _234  and  _235
REMARK   99  A    between atoms: _238  and  _240
REMARK  100  A    between atoms: _240  and  _241
REMARK  101  A    between atoms: _240  and  _243
REMARK  102  A    between atoms: _243  and  _244
REMARK  103  A    between atoms: _247  and  _249
REMARK  104  A    between atoms: _249  and  _250
REMARK  105  A    between atoms: _249  and  _252
REMARK                            x       y       z     vdW  Elec       q    Type
REMARK                         _______ _______ _______ _____ _____    ______ ____
ROOT
ATOM      1  O   HOH     1      20.814  16.028  -5.600  0.00  0.00    +0.000 OA
ENDROOT
TORSDOF 0
