REMARK  Name = ../refined-set-2016/3mam/3mam_pocket.pdb
REMARK  121 active torsions:
REMARK  status: ('A' for Active; 'I' for Inactive)
REMARK    1  A    between atoms: _1  and  _3
REMARK    2  A    between atoms: _3  and  _4
REMARK    3  A    between atoms: _3  and  _6
REMARK    4  A    between atoms: _6  and  _7
REMARK    5  A    between atoms: _7  and  _8
REMARK    6  A    between atoms: _8  and  _9
REMARK    7  A    between atoms: _9  and  _10
REMARK    8  A    between atoms: _14  and  _16
REMARK    9  A    between atoms: _16  and  _17
REMARK   10  A    between atoms: _16  and  _19
REMARK   11  A    between atoms: _19  and  _20
REMARK   12  A    between atoms: _26  and  _28
REMARK   13  A    between atoms: _28  and  _29
REMARK   14  A    between atoms: _28  and  _31
REMARK   15  A    between atoms: _31  and  _32
REMARK   16  A    between atoms: _37  and  _39
REMARK   17  A    between atoms: _39  and  _40
REMARK   18  A    between atoms: _39  and  _42
REMARK   19  A    between atoms: _42  and  _43
REMARK   20  A    between atoms: _43  and  _44
REMARK   21  A    between atoms: _47  and  _49
REMARK   22  A    between atoms: _49  and  _50
REMARK   23  A    between atoms: _49  and  _52
REMARK   24  A    between atoms: _52  and  _53
REMARK   25  A    between atoms: _53  and  _54
REMARK   26  A    between atoms: _59  and  _61
REMARK   27  A    between atoms: _61  and  _62
REMARK   28  A    between atoms: _61  and  _64
REMARK   29  A    between atoms: _64  and  _65
REMARK   30  A    between atoms: _68  and  _70
REMARK   31  A    between atoms: _70  and  _71
REMARK   32  A    between atoms: _70  and  _73
REMARK   33  A    between atoms: _76  and  _78
REMARK   34  A    between atoms: _78  and  _79
REMARK   35  A    between atoms: _78  and  _81
REMARK   36  A    between atoms: _81  and  _82
REMARK   37  A    between atoms: _82  and  _83
REMARK   38  A    between atoms: _86  and  _88
REMARK   39  A    between atoms: _88  and  _89
REMARK   40  A    between atoms: _88  and  _91
REMARK   41  A    between atoms: _91  and  _92
REMARK   42  A    between atoms: _97  and  _98
REMARK   43  A    between atoms: _100  and  _102
REMARK   44  A    between atoms: _102  and  _103
REMARK   45  A    between atoms: _102  and  _105
REMARK   46  A    between atoms: _105  and  _106
REMARK   47  A    between atoms: _109  and  _111
REMARK   48  A    between atoms: _111  and  _112
REMARK   49  A    between atoms: _114  and  _116
REMARK   50  A    between atoms: _116  and  _117
REMARK   51  A    between atoms: _116  and  _119
REMARK   52  A    between atoms: _119  and  _120
REMARK   53  A    between atoms: _123  and  _125
REMARK   54  A    between atoms: _125  and  _126
REMARK   55  A    between atoms: _129  and  _131
REMARK   56  A    between atoms: _131  and  _132
REMARK   57  A    between atoms: _131  and  _134
REMARK   58  A    between atoms: _134  and  _135
REMARK   59  A    between atoms: _140  and  _142
REMARK   60  A    between atoms: _142  and  _143
REMARK   61  A    between atoms: _142  and  _145
REMARK   62  A    between atoms: _148  and  _150
REMARK   63  A    between atoms: _150  and  _151
REMARK   64  A    between atoms: _150  and  _153
REMARK   65  A    between atoms: _153  and  _154
REMARK   66  A    between atoms: _160  and  _162
REMARK   67  A    between atoms: _162  and  _163
REMARK   68  A    between atoms: _162  and  _165
REMARK   69  A    between atoms: _165  and  _166
REMARK   70  A    between atoms: _166  and  _167
REMARK   71  A    between atoms: _167  and  _168
REMARK   72  A    between atoms: _177  and  _179
REMARK   73  A    between atoms: _179  and  _180
REMARK   74  A    between atoms: _179  and  _182
REMARK   75  A    between atoms: _182  and  _183
REMARK   76  A    between atoms: _186  and  _188
REMARK   77  A    between atoms: _188  and  _189
REMARK   78  A    between atoms: _188  and  _191
REMARK   79  A    between atoms: _191  and  _192
REMARK   80  A    between atoms: _195  and  _197
REMARK   81  A    between atoms: _197  and  _198
REMARK   82  A    between atoms: _201  and  _203
REMARK   83  A    between atoms: _203  and  _204
REMARK   84  A    between atoms: _207  and  _209
REMARK   85  A    between atoms: _209  and  _210
REMARK   86  A    between atoms: _209  and  _212
REMARK   87  A    between atoms: _212  and  _213
REMARK   88  A    between atoms: _213  and  _214
REMARK   89  A    between atoms: _214  and  _215
REMARK   90  A    between atoms: _224  and  _226
REMARK   91  A    between atoms: _226  and  _227
REMARK   92  A    between atoms: _230  and  _232
REMARK   93  A    between atoms: _232  and  _233
REMARK   94  A    between atoms: _232  and  _235
REMARK   95  A    between atoms: _235  and  _236
REMARK   96  A    between atoms: _241  and  _242
REMARK   97  A    between atoms: _244  and  _246
REMARK   98  A    between atoms: _246  and  _247
REMARK   99  A    between atoms: _246  and  _249
REMARK  100  A    between atoms: _249  and  _250
REMARK  101  A    between atoms: _253  and  _255
REMARK  102  A    between atoms: _255  and  _256
REMARK  103  A    between atoms: _255  and  _258
REMARK  104  A    between atoms: _258  and  _259
REMARK  105  A    between atoms: _263  and  _264
REMARK  106  A    between atoms: _270  and  _271
REMARK  107  A    between atoms: _276  and  _278
REMARK  108  A    between atoms: _278  and  _279
REMARK  109  A    between atoms: _278  and  _281
REMARK  110  A    between atoms: _281  and  _282
REMARK  111  A    between atoms: _287  and  _288
REMARK  112  A    between atoms: _290  and  _292
REMARK  113  A    between atoms: _292  and  _293
REMARK  114  A    between atoms: _292  and  _295
REMARK  115  A    between atoms: _295  and  _296
REMARK  116  A    between atoms: _299  and  _301
REMARK  117  A    between atoms: _301  and  _302
REMARK  118  A    between atoms: _305  and  _307
REMARK  119  A    between atoms: _307  and  _308
REMARK  120  A    between atoms: _307  and  _310
REMARK  121  A    between atoms: _310  and  _311
REMARK                            x       y       z     vdW  Elec       q    Type
REMARK                         _______ _______ _______ _____ _____    ______ ____
ROOT
ATOM      1  CG  LYS A   1      24.348 -20.559  -3.057  0.00  0.00    -0.000 C 
ENDROOT
BRANCH   1   2
ATOM      2  CB  LYS A   1      25.612 -20.053  -3.760  0.00  0.00    +0.025 C 
BRANCH   2   3
ATOM      3  CA  LYS A   1      26.795 -19.821  -2.820  0.00  0.00    +0.133 C 
BRANCH   3   4
ATOM      4  N   LYS A   1      26.379 -18.952  -1.714  0.00  0.00    -0.239 NA
ATOM      5  H   LYS A   1      25.599 -18.286  -1.887  0.00  0.00    +0.142 HD
ENDBRANCH   3   4
BRANCH   3   6
ATOM      6  C   LYS A   1      27.966 -19.152  -3.564  0.00  0.00    +0.224 C 
ATOM      7  O   LYS A   1      28.128 -17.919  -3.465  0.00  0.00    -0.287 OA
ENDBRANCH   3   6
ENDBRANCH   2   3
ENDBRANCH   1   2
BRANCH   1   8
ATOM      8  CD  LYS A   1      23.294 -20.932  -4.050  0.00  0.00    -0.024 C 
BRANCH   8   9
ATOM      9  CE  LYS A   1      21.940 -21.062  -3.363  0.00  0.00    -0.086 C 
BRANCH   9  10
ATOM     10  NZ  LYS A   1      20.884 -21.557  -4.281  0.00  0.00    +0.380 N 
ATOM     11  HZ1 LYS A   1      19.983 -21.628  -3.766  0.00  0.00    -0.089 HD
ATOM     12  HZ2 LYS A   1      21.152 -22.494  -4.643  0.00  0.00    -0.089 HD
ATOM     13  HZ3 LYS A   1      20.779 -20.895  -5.076  0.00  0.00    -0.089 HD
ENDBRANCH   9  10
ENDBRANCH   8   9
ENDBRANCH   1   8
TORSDOF 7
REMARK  Name = ../refined-set-2016/3mam/3mam_pocket.pdb
REMARK  121 active torsions:
REMARK  status: ('A' for Active; 'I' for Inactive)
REMARK    1  A    between atoms: _1  and  _3
REMARK    2  A    between atoms: _3  and  _4
REMARK    3  A    between atoms: _3  and  _6
REMARK    4  A    between atoms: _6  and  _7
REMARK    5  A    between atoms: _7  and  _8
REMARK    6  A    between atoms: _8  and  _9
REMARK    7  A    between atoms: _9  and  _10
REMARK    8  A    between atoms: _14  and  _16
REMARK    9  A    between atoms: _16  and  _17
REMARK   10  A    between atoms: _16  and  _19
REMARK   11  A    between atoms: _19  and  _20
REMARK   12  A    between atoms: _26  and  _28
REMARK   13  A    between atoms: _28  and  _29
REMARK   14  A    between atoms: _28  and  _31
REMARK   15  A    between atoms: _31  and  _32
REMARK   16  A    between atoms: _37  and  _39
REMARK   17  A    between atoms: _39  and  _40
REMARK   18  A    between atoms: _39  and  _42
REMARK   19  A    between atoms: _42  and  _43
REMARK   20  A    between atoms: _43  and  _44
REMARK   21  A    between atoms: _47  and  _49
REMARK   22  A    between atoms: _49  and  _50
REMARK   23  A    between atoms: _49  and  _52
REMARK   24  A    between atoms: _52  and  _53
REMARK   25  A    between atoms: _53  and  _54
REMARK   26  A    between atoms: _59  and  _61
REMARK   27  A    between atoms: _61  and  _62
REMARK   28  A    between atoms: _61  and  _64
REMARK   29  A    between atoms: _64  and  _65
REMARK   30  A    between atoms: _68  and  _70
REMARK   31  A    between atoms: _70  and  _71
REMARK   32  A    between atoms: _70  and  _73
REMARK   33  A    between atoms: _76  and  _78
REMARK   34  A    between atoms: _78  and  _79
REMARK   35  A    between atoms: _78  and  _81
REMARK   36  A    between atoms: _81  and  _82
REMARK   37  A    between atoms: _82  and  _83
REMARK   38  A    between atoms: _86  and  _88
REMARK   39  A    between atoms: _88  and  _89
REMARK   40  A    between atoms: _88  and  _91
REMARK   41  A    between atoms: _91  and  _92
REMARK   42  A    between atoms: _97  and  _98
REMARK   43  A    between atoms: _100  and  _102
REMARK   44  A    between atoms: _102  and  _103
REMARK   45  A    between atoms: _102  and  _105
REMARK   46  A    between atoms: _105  and  _106
REMARK   47  A    between atoms: _109  and  _111
REMARK   48  A    between atoms: _111  and  _112
REMARK   49  A    between atoms: _114  and  _116
REMARK   50  A    between atoms: _116  and  _117
REMARK   51  A    between atoms: _116  and  _119
REMARK   52  A    between atoms: _119  and  _120
REMARK   53  A    between atoms: _123  and  _125
REMARK   54  A    between atoms: _125  and  _126
REMARK   55  A    between atoms: _129  and  _131
REMARK   56  A    between atoms: _131  and  _132
REMARK   57  A    between atoms: _131  and  _134
REMARK   58  A    between atoms: _134  and  _135
REMARK   59  A    between atoms: _140  and  _142
REMARK   60  A    between atoms: _142  and  _143
REMARK   61  A    between atoms: _142  and  _145
REMARK   62  A    between atoms: _148  and  _150
REMARK   63  A    between atoms: _150  and  _151
REMARK   64  A    between atoms: _150  and  _153
REMARK   65  A    between atoms: _153  and  _154
REMARK   66  A    between atoms: _160  and  _162
REMARK   67  A    between atoms: _162  and  _163
REMARK   68  A    between atoms: _162  and  _165
REMARK   69  A    between atoms: _165  and  _166
REMARK   70  A    between atoms: _166  and  _167
REMARK   71  A    between atoms: _167  and  _168
REMARK   72  A    between atoms: _177  and  _179
REMARK   73  A    between atoms: _179  and  _180
REMARK   74  A    between atoms: _179  and  _182
REMARK   75  A    between atoms: _182  and  _183
REMARK   76  A    between atoms: _186  and  _188
REMARK   77  A    between atoms: _188  and  _189
REMARK   78  A    between atoms: _188  and  _191
REMARK   79  A    between atoms: _191  and  _192
REMARK   80  A    between atoms: _195  and  _197
REMARK   81  A    between atoms: _197  and  _198
REMARK   82  A    between atoms: _201  and  _203
REMARK   83  A    between atoms: _203  and  _204
REMARK   84  A    between atoms: _207  and  _209
REMARK   85  A    between atoms: _209  and  _210
REMARK   86  A    between atoms: _209  and  _212
REMARK   87  A    between atoms: _212  and  _213
REMARK   88  A    between atoms: _213  and  _214
REMARK   89  A    between atoms: _214  and  _215
REMARK   90  A    between atoms: _224  and  _226
REMARK   91  A    between atoms: _226  and  _227
REMARK   92  A    between atoms: _230  and  _232
REMARK   93  A    between atoms: _232  and  _233
REMARK   94  A    between atoms: _232  and  _235
REMARK   95  A    between atoms: _235  and  _236
REMARK   96  A    between atoms: _241  and  _242
REMARK   97  A    between atoms: _244  and  _246
REMARK   98  A    between atoms: _246  and  _247
REMARK   99  A    between atoms: _246  and  _249
REMARK  100  A    between atoms: _249  and  _250
REMARK  101  A    between atoms: _253  and  _255
REMARK  102  A    between atoms: _255  and  _256
REMARK  103  A    between atoms: _255  and  _258
REMARK  104  A    between atoms: _258  and  _259
REMARK  105  A    between atoms: _263  and  _264
REMARK  106  A    between atoms: _270  and  _271
REMARK  107  A    between atoms: _276  and  _278
REMARK  108  A    between atoms: _278  and  _279
REMARK  109  A    between atoms: _278  and  _281
REMARK  110  A    between atoms: _281  and  _282
REMARK  111  A    between atoms: _287  and  _288
REMARK  112  A    between atoms: _290  and  _292
REMARK  113  A    between atoms: _292  and  _293
REMARK  114  A    between atoms: _292  and  _295
REMARK  115  A    between atoms: _295  and  _296
REMARK  116  A    between atoms: _299  and  _301
REMARK  117  A    between atoms: _301  and  _302
REMARK  118  A    between atoms: _305  and  _307
REMARK  119  A    between atoms: _307  and  _308
REMARK  120  A    between atoms: _307  and  _310
REMARK  121  A    between atoms: _310  and  _311
REMARK                            x       y       z     vdW  Elec       q    Type
REMARK                         _______ _______ _______ _____ _____    ______ ____
ROOT
ATOM      1  C   ASN A   2      27.918 -12.250  -6.874  0.00  0.00    +0.241 C 
ATOM      2  O   ASN A   2      28.181 -11.706  -5.806  0.00  0.00    -0.273 OA
ATOM      3  N   GLU A   3      26.689 -12.427  -7.333  0.00  0.00    -0.297 N 
ATOM      4  H   GLU A   3      26.592 -12.937  -8.234  0.00  0.00    +0.150 HD
ENDROOT
BRANCH   3   5
ATOM      5  CA  GLU A   3      25.467 -11.978  -6.699  0.00  0.00    +0.149 C 
BRANCH   5   6
ATOM      6  C   GLU A   3      25.398 -12.363  -5.221  0.00  0.00    +0.241 C 
ATOM      7  O   GLU A   3      25.037 -11.551  -4.367  0.00  0.00    -0.273 OA
ATOM      8  N   GLN A   4      25.793 -13.596  -4.918  0.00  0.00    -0.298 N 
ATOM      9  H   GLN A   4      26.119 -14.226  -5.678  0.00  0.00    +0.150 HD
BRANCH   8  10
ATOM     10  CA  GLN A   4      25.780 -14.083  -3.548  0.00  0.00    +0.137 C 
BRANCH  10  11
ATOM     11  C   GLN A   4      26.859 -13.461  -2.679  0.00  0.00    +0.227 C 
ATOM     12  O   GLN A   4      26.611 -13.161  -1.503  0.00  0.00    -0.286 OA
ENDBRANCH  10  11
BRANCH  10  13
ATOM     13  CB  GLN A   4      25.931 -15.609  -3.541  0.00  0.00    +0.037 C 
BRANCH  13  14
ATOM     14  CG  GLN A   4      24.727 -16.322  -4.066  0.00  0.00    +0.087 C 
BRANCH  14  15
ATOM     15  CD  GLN A   4      23.741 -16.684  -2.978  0.00  0.00    +0.219 C 
ATOM     16  OE1 GLN A   4      24.132 -17.060  -1.877  0.00  0.00    -0.275 OA
ATOM     17  NE2 GLN A   4      22.458 -16.586  -3.287  0.00  0.00    -0.329 N 
ATOM     18 HE21 GLN A   4      21.733 -16.833  -2.583  0.00  0.00    +0.145 HD
ATOM     19 HE22 GLN A   4      22.174 -16.262  -4.234  0.00  0.00    +0.145 HD
ENDBRANCH  14  15
ENDBRANCH  13  14
ENDBRANCH  10  13
ENDBRANCH   8  10
ENDBRANCH   5   6
BRANCH   5  20
ATOM     20  CB  GLU A   3      24.364 -12.635  -7.517  0.00  0.00    +0.041 C 
BRANCH  20  21
ATOM     21  CG  GLU A   3      22.958 -12.525  -7.109  0.00  0.00    +0.116 C 
BRANCH  21  22
ATOM     22  CD  GLU A   3      22.084 -12.978  -8.261  0.00  0.00    +0.365 C 
ATOM     23  OE2 GLU A   3      21.353 -13.984  -8.121  0.00  0.00    -0.246 OA
ATOM     24  OE1 GLU A   3      22.162 -12.341  -9.334  0.00  0.00    -0.246 OA
ENDBRANCH  21  22
ENDBRANCH  20  21
ENDBRANCH   5  20
ENDBRANCH   3   5
BRANCH   1  25
ATOM     25  CA  ASN A   2      29.016 -12.776  -7.791  0.00  0.00    +0.158 C 
BRANCH  25  28
ATOM     26  C   PHE A   1      28.767 -15.150  -7.000  0.00  0.00    +0.239 C 
ATOM     27  O   PHE A   1      28.189 -14.900  -5.933  0.00  0.00    -0.274 OA
ATOM     28  N   ASN A   2      29.173 -14.245  -7.896  0.00  0.00    -0.297 N 
ATOM     29  H   ASN A   2      29.645 -14.607  -8.749  0.00  0.00    +0.150 HD
BRANCH  26  30
ATOM     30  CA  PHE A   1      29.086 -16.595  -7.372  0.00  0.00    +0.149 C 
BRANCH  30  31
ATOM     31  N   PHE A   1      29.177 -17.469  -6.200  0.00  0.00    -0.238 NA
ATOM     32  H   PHE A   1      28.776 -17.154  -5.294  0.00  0.00    +0.142 HD
ENDBRANCH  30  31
BRANCH  30  33
ATOM     33  CB  PHE A   1      28.106 -17.106  -8.445  0.00  0.00    +0.053 C 
BRANCH  33  34
ATOM     34  CG  PHE A   1      26.717 -17.415  -7.943  0.00  0.00    -0.020 A 
ATOM     35  CD2 PHE A   1      26.359 -18.726  -7.616  0.00  0.00    -0.004 A 
ATOM     36  CE2 PHE A   1      25.057 -19.027  -7.174  0.00  0.00    -0.000 A 
ATOM     37  CZ  PHE A   1      24.100 -18.031  -7.099  0.00  0.00    -0.000 A 
ATOM     38  CE1 PHE A   1      24.442 -16.717  -7.438  0.00  0.00    -0.000 A 
ATOM     39  CD1 PHE A   1      25.745 -16.419  -7.862  0.00  0.00    -0.004 A 
ENDBRANCH  33  34
ENDBRANCH  30  33
ENDBRANCH  26  30
ENDBRANCH  25  28
BRANCH  25  40
ATOM     40  CB  ASN A   2      28.896 -12.126  -9.203  0.00  0.00    +0.114 C 
BRANCH  40  41
ATOM     41  CG  ASN A   2      28.116 -12.981 -10.224  0.00  0.00    +0.222 C 
ATOM     42  ND2 ASN A   2      26.978 -13.529  -9.817  0.00  0.00    -0.329 N 
ATOM     43 HD21 ASN A   2      26.658 -13.395  -8.837  0.00  0.00    +0.145 HD
ATOM     44 HD22 ASN A   2      26.406 -14.092 -10.478  0.00  0.00    +0.145 HD
ATOM     45  OD1 ASN A   2      28.538 -13.114 -11.386  0.00  0.00    -0.275 OA
ENDBRANCH  40  41
ENDBRANCH  25  40
ENDBRANCH   1  25
TORSDOF 18
REMARK  Name = ../refined-set-2016/3mam/3mam_pocket.pdb
REMARK  121 active torsions:
REMARK  status: ('A' for Active; 'I' for Inactive)
REMARK    1  A    between atoms: _1  and  _3
REMARK    2  A    between atoms: _3  and  _4
REMARK    3  A    between atoms: _3  and  _6
REMARK    4  A    between atoms: _6  and  _7
REMARK    5  A    between atoms: _7  and  _8
REMARK    6  A    between atoms: _8  and  _9
REMARK    7  A    between atoms: _9  and  _10
REMARK    8  A    between atoms: _14  and  _16
REMARK    9  A    between atoms: _16  and  _17
REMARK   10  A    between atoms: _16  and  _19
REMARK   11  A    between atoms: _19  and  _20
REMARK   12  A    between atoms: _26  and  _28
REMARK   13  A    between atoms: _28  and  _29
REMARK   14  A    between atoms: _28  and  _31
REMARK   15  A    between atoms: _31  and  _32
REMARK   16  A    between atoms: _37  and  _39
REMARK   17  A    between atoms: _39  and  _40
REMARK   18  A    between atoms: _39  and  _42
REMARK   19  A    between atoms: _42  and  _43
REMARK   20  A    between atoms: _43  and  _44
REMARK   21  A    between atoms: _47  and  _49
REMARK   22  A    between atoms: _49  and  _50
REMARK   23  A    between atoms: _49  and  _52
REMARK   24  A    between atoms: _52  and  _53
REMARK   25  A    between atoms: _53  and  _54
REMARK   26  A    between atoms: _59  and  _61
REMARK   27  A    between atoms: _61  and  _62
REMARK   28  A    between atoms: _61  and  _64
REMARK   29  A    between atoms: _64  and  _65
REMARK   30  A    between atoms: _68  and  _70
REMARK   31  A    between atoms: _70  and  _71
REMARK   32  A    between atoms: _70  and  _73
REMARK   33  A    between atoms: _76  and  _78
REMARK   34  A    between atoms: _78  and  _79
REMARK   35  A    between atoms: _78  and  _81
REMARK   36  A    between atoms: _81  and  _82
REMARK   37  A    between atoms: _82  and  _83
REMARK   38  A    between atoms: _86  and  _88
REMARK   39  A    between atoms: _88  and  _89
REMARK   40  A    between atoms: _88  and  _91
REMARK   41  A    between atoms: _91  and  _92
REMARK   42  A    between atoms: _97  and  _98
REMARK   43  A    between atoms: _100  and  _102
REMARK   44  A    between atoms: _102  and  _103
REMARK   45  A    between atoms: _102  and  _105
REMARK   46  A    between atoms: _105  and  _106
REMARK   47  A    between atoms: _109  and  _111
REMARK   48  A    between atoms: _111  and  _112
REMARK   49  A    between atoms: _114  and  _116
REMARK   50  A    between atoms: _116  and  _117
REMARK   51  A    between atoms: _116  and  _119
REMARK   52  A    between atoms: _119  and  _120
REMARK   53  A    between atoms: _123  and  _125
REMARK   54  A    between atoms: _125  and  _126
REMARK   55  A    between atoms: _129  and  _131
REMARK   56  A    between atoms: _131  and  _132
REMARK   57  A    between atoms: _131  and  _134
REMARK   58  A    between atoms: _134  and  _135
REMARK   59  A    between atoms: _140  and  _142
REMARK   60  A    between atoms: _142  and  _143
REMARK   61  A    between atoms: _142  and  _145
REMARK   62  A    between atoms: _148  and  _150
REMARK   63  A    between atoms: _150  and  _151
REMARK   64  A    between atoms: _150  and  _153
REMARK   65  A    between atoms: _153  and  _154
REMARK   66  A    between atoms: _160  and  _162
REMARK   67  A    between atoms: _162  and  _163
REMARK   68  A    between atoms: _162  and  _165
REMARK   69  A    between atoms: _165  and  _166
REMARK   70  A    between atoms: _166  and  _167
REMARK   71  A    between atoms: _167  and  _168
REMARK   72  A    between atoms: _177  and  _179
REMARK   73  A    between atoms: _179  and  _180
REMARK   74  A    between atoms: _179  and  _182
REMARK   75  A    between atoms: _182  and  _183
REMARK   76  A    between atoms: _186  and  _188
REMARK   77  A    between atoms: _188  and  _189
REMARK   78  A    between atoms: _188  and  _191
REMARK   79  A    between atoms: _191  and  _192
REMARK   80  A    between atoms: _195  and  _197
REMARK   81  A    between atoms: _197  and  _198
REMARK   82  A    between atoms: _201  and  _203
REMARK   83  A    between atoms: _203  and  _204
REMARK   84  A    between atoms: _207  and  _209
REMARK   85  A    between atoms: _209  and  _210
REMARK   86  A    between atoms: _209  and  _212
REMARK   87  A    between atoms: _212  and  _213
REMARK   88  A    between atoms: _213  and  _214
REMARK   89  A    between atoms: _214  and  _215
REMARK   90  A    between atoms: _224  and  _226
REMARK   91  A    between atoms: _226  and  _227
REMARK   92  A    between atoms: _230  and  _232
REMARK   93  A    between atoms: _232  and  _233
REMARK   94  A    between atoms: _232  and  _235
REMARK   95  A    between atoms: _235  and  _236
REMARK   96  A    between atoms: _241  and  _242
REMARK   97  A    between atoms: _244  and  _246
REMARK   98  A    between atoms: _246  and  _247
REMARK   99  A    between atoms: _246  and  _249
REMARK  100  A    between atoms: _249  and  _250
REMARK  101  A    between atoms: _253  and  _255
REMARK  102  A    between atoms: _255  and  _256
REMARK  103  A    between atoms: _255  and  _258
REMARK  104  A    between atoms: _258  and  _259
REMARK  105  A    between atoms: _263  and  _264
REMARK  106  A    between atoms: _270  and  _271
REMARK  107  A    between atoms: _276  and  _278
REMARK  108  A    between atoms: _278  and  _279
REMARK  109  A    between atoms: _278  and  _281
REMARK  110  A    between atoms: _281  and  _282
REMARK  111  A    between atoms: _287  and  _288
REMARK  112  A    between atoms: _290  and  _292
REMARK  113  A    between atoms: _292  and  _293
REMARK  114  A    between atoms: _292  and  _295
REMARK  115  A    between atoms: _295  and  _296
REMARK  116  A    between atoms: _299  and  _301
REMARK  117  A    between atoms: _301  and  _302
REMARK  118  A    between atoms: _305  and  _307
REMARK  119  A    between atoms: _307  and  _308
REMARK  120  A    between atoms: _307  and  _310
REMARK  121  A    between atoms: _310  and  _311
REMARK                            x       y       z     vdW  Elec       q    Type
REMARK                         _______ _______ _______ _____ _____    ______ ____
ROOT
ATOM      1  CA  THR A   1      22.216 -24.860  -2.376  0.00  0.00    +0.160 C 
ENDROOT
BRANCH   1   2
ATOM      2  N   THR A   1      23.531 -24.941  -3.016  0.00  0.00    -0.237 NA
ATOM      3  H   THR A   1      23.580 -25.147  -4.034  0.00  0.00    +0.142 HD
ENDBRANCH   1   2
BRANCH   1   4
ATOM      4  C   THR A   1      22.116 -25.691  -1.103  0.00  0.00    +0.227 C 
ATOM      5  O   THR A   1      21.760 -25.181  -0.038  0.00  0.00    -0.287 OA
ENDBRANCH   1   4
BRANCH   1   6
ATOM      6  CB  THR A   1      21.128 -25.302  -3.357  0.00  0.00    +0.134 C 
ATOM      7  CG2 THR A   1      19.752 -25.298  -2.714  0.00  0.00    +0.034 C 
BRANCH   6   8
ATOM      8  OG1 THR A   1      21.139 -24.430  -4.491  0.00  0.00    -0.383 OA
ATOM      9  HG1 THR A   1      22.024 -24.475  -4.932  0.00  0.00    +0.210 HD
ENDBRANCH   6   8
ENDBRANCH   1   6
TORSDOF 4
REMARK  Name = ../refined-set-2016/3mam/3mam_pocket.pdb
REMARK  121 active torsions:
REMARK  status: ('A' for Active; 'I' for Inactive)
REMARK    1  A    between atoms: _1  and  _3
REMARK    2  A    between atoms: _3  and  _4
REMARK    3  A    between atoms: _3  and  _6
REMARK    4  A    between atoms: _6  and  _7
REMARK    5  A    between atoms: _7  and  _8
REMARK    6  A    between atoms: _8  and  _9
REMARK    7  A    between atoms: _9  and  _10
REMARK    8  A    between atoms: _14  and  _16
REMARK    9  A    between atoms: _16  and  _17
REMARK   10  A    between atoms: _16  and  _19
REMARK   11  A    between atoms: _19  and  _20
REMARK   12  A    between atoms: _26  and  _28
REMARK   13  A    between atoms: _28  and  _29
REMARK   14  A    between atoms: _28  and  _31
REMARK   15  A    between atoms: _31  and  _32
REMARK   16  A    between atoms: _37  and  _39
REMARK   17  A    between atoms: _39  and  _40
REMARK   18  A    between atoms: _39  and  _42
REMARK   19  A    between atoms: _42  and  _43
REMARK   20  A    between atoms: _43  and  _44
REMARK   21  A    between atoms: _47  and  _49
REMARK   22  A    between atoms: _49  and  _50
REMARK   23  A    between atoms: _49  and  _52
REMARK   24  A    between atoms: _52  and  _53
REMARK   25  A    between atoms: _53  and  _54
REMARK   26  A    between atoms: _59  and  _61
REMARK   27  A    between atoms: _61  and  _62
REMARK   28  A    between atoms: _61  and  _64
REMARK   29  A    between atoms: _64  and  _65
REMARK   30  A    between atoms: _68  and  _70
REMARK   31  A    between atoms: _70  and  _71
REMARK   32  A    between atoms: _70  and  _73
REMARK   33  A    between atoms: _76  and  _78
REMARK   34  A    between atoms: _78  and  _79
REMARK   35  A    between atoms: _78  and  _81
REMARK   36  A    between atoms: _81  and  _82
REMARK   37  A    between atoms: _82  and  _83
REMARK   38  A    between atoms: _86  and  _88
REMARK   39  A    between atoms: _88  and  _89
REMARK   40  A    between atoms: _88  and  _91
REMARK   41  A    between atoms: _91  and  _92
REMARK   42  A    between atoms: _97  and  _98
REMARK   43  A    between atoms: _100  and  _102
REMARK   44  A    between atoms: _102  and  _103
REMARK   45  A    between atoms: _102  and  _105
REMARK   46  A    between atoms: _105  and  _106
REMARK   47  A    between atoms: _109  and  _111
REMARK   48  A    between atoms: _111  and  _112
REMARK   49  A    between atoms: _114  and  _116
REMARK   50  A    between atoms: _116  and  _117
REMARK   51  A    between atoms: _116  and  _119
REMARK   52  A    between atoms: _119  and  _120
REMARK   53  A    between atoms: _123  and  _125
REMARK   54  A    between atoms: _125  and  _126
REMARK   55  A    between atoms: _129  and  _131
REMARK   56  A    between atoms: _131  and  _132
REMARK   57  A    between atoms: _131  and  _134
REMARK   58  A    between atoms: _134  and  _135
REMARK   59  A    between atoms: _140  and  _142
REMARK   60  A    between atoms: _142  and  _143
REMARK   61  A    between atoms: _142  and  _145
REMARK   62  A    between atoms: _148  and  _150
REMARK   63  A    between atoms: _150  and  _151
REMARK   64  A    between atoms: _150  and  _153
REMARK   65  A    between atoms: _153  and  _154
REMARK   66  A    between atoms: _160  and  _162
REMARK   67  A    between atoms: _162  and  _163
REMARK   68  A    between atoms: _162  and  _165
REMARK   69  A    between atoms: _165  and  _166
REMARK   70  A    between atoms: _166  and  _167
REMARK   71  A    between atoms: _167  and  _168
REMARK   72  A    between atoms: _177  and  _179
REMARK   73  A    between atoms: _179  and  _180
REMARK   74  A    between atoms: _179  and  _182
REMARK   75  A    between atoms: _182  and  _183
REMARK   76  A    between atoms: _186  and  _188
REMARK   77  A    between atoms: _188  and  _189
REMARK   78  A    between atoms: _188  and  _191
REMARK   79  A    between atoms: _191  and  _192
REMARK   80  A    between atoms: _195  and  _197
REMARK   81  A    between atoms: _197  and  _198
REMARK   82  A    between atoms: _201  and  _203
REMARK   83  A    between atoms: _203  and  _204
REMARK   84  A    between atoms: _207  and  _209
REMARK   85  A    between atoms: _209  and  _210
REMARK   86  A    between atoms: _209  and  _212
REMARK   87  A    between atoms: _212  and  _213
REMARK   88  A    between atoms: _213  and  _214
REMARK   89  A    between atoms: _214  and  _215
REMARK   90  A    between atoms: _224  and  _226
REMARK   91  A    between atoms: _226  and  _227
REMARK   92  A    between atoms: _230  and  _232
REMARK   93  A    between atoms: _232  and  _233
REMARK   94  A    between atoms: _232  and  _235
REMARK   95  A    between atoms: _235  and  _236
REMARK   96  A    between atoms: _241  and  _242
REMARK   97  A    between atoms: _244  and  _246
REMARK   98  A    between atoms: _246  and  _247
REMARK   99  A    between atoms: _246  and  _249
REMARK  100  A    between atoms: _249  and  _250
REMARK  101  A    between atoms: _253  and  _255
REMARK  102  A    between atoms: _255  and  _256
REMARK  103  A    between atoms: _255  and  _258
REMARK  104  A    between atoms: _258  and  _259
REMARK  105  A    between atoms: _263  and  _264
REMARK  106  A    between atoms: _270  and  _271
REMARK  107  A    between atoms: _276  and  _278
REMARK  108  A    between atoms: _278  and  _279
REMARK  109  A    between atoms: _278  and  _281
REMARK  110  A    between atoms: _281  and  _282
REMARK  111  A    between atoms: _287  and  _288
REMARK  112  A    between atoms: _290  and  _292
REMARK  113  A    between atoms: _292  and  _293
REMARK  114  A    between atoms: _292  and  _295
REMARK  115  A    between atoms: _295  and  _296
REMARK  116  A    between atoms: _299  and  _301
REMARK  117  A    between atoms: _301  and  _302
REMARK  118  A    between atoms: _305  and  _307
REMARK  119  A    between atoms: _307  and  _308
REMARK  120  A    between atoms: _307  and  _310
REMARK  121  A    between atoms: _310  and  _311
REMARK                            x       y       z     vdW  Elec       q    Type
REMARK                         _______ _______ _______ _____ _____    ______ ____
ROOT
ATOM      1  C   TYR A   3      14.588 -19.363  -4.802  0.00  0.00    +0.241 C 
ATOM      2  O   TYR A   3      14.690 -20.583  -4.568  0.00  0.00    -0.273 OA
ATOM      3  N   THR A   4      13.421 -18.784  -5.075  0.00  0.00    -0.295 N 
ATOM      4  H   THR A   4      13.390 -17.793  -5.388  0.00  0.00    +0.150 HD
ENDROOT
BRANCH   3   5
ATOM      5  CA  THR A   4      12.173 -19.555  -4.932  0.00  0.00    +0.176 C 
BRANCH   5   6
ATOM      6  C   THR A   4      12.184 -20.848  -5.763  0.00  0.00    +0.243 C 
ATOM      7  O   THR A   4      12.000 -21.933  -5.214  0.00  0.00    -0.273 OA
ATOM      8  N   GLY A   5      12.424 -20.745  -7.074  0.00  0.00    -0.295 N 
ATOM      9  H   GLY A   5      12.603 -19.809  -7.491  0.00  0.00    +0.150 HD
BRANCH   8  10
ATOM     10  CA  GLY A   5      12.438 -21.938  -7.933  0.00  0.00    +0.176 C 
BRANCH  10  11
ATOM     11  C   GLY A   5      13.455 -22.983  -7.510  0.00  0.00    +0.243 C 
ATOM     12  N   THR A   6      14.627 -22.511  -7.096  0.00  0.00    -0.295 N 
ATOM     13  H   THR A   6      14.798 -21.486  -7.138  0.00  0.00    +0.150 HD
ATOM     14  O   GLY A   5      13.185 -24.191  -7.561  0.00  0.00    -0.273 OA
BRANCH  12  15
ATOM     15  CA  THR A   6      15.686 -23.383  -6.583  0.00  0.00    +0.176 C 
BRANCH  15  16
ATOM     16  C   THR A   6      15.237 -24.125  -5.313  0.00  0.00    +0.243 C 
ATOM     17  N   ALA A   7      14.636 -23.407  -4.365  0.00  0.00    -0.298 N 
ATOM     18  H   ALA A   7      14.556 -22.376  -4.478  0.00  0.00    +0.150 HD
ATOM     19  O   THR A   6      15.438 -25.329  -5.198  0.00  0.00    -0.273 OA
BRANCH  17  20
ATOM     20  CA  ALA A   7      14.086 -24.047  -3.165  0.00  0.00    +0.137 C 
ATOM     21  CB  ALA A   7      13.554 -22.999  -2.181  0.00  0.00    +0.030 C 
BRANCH  20  22
ATOM     22  C   ALA A   7      12.993 -25.057  -3.522  0.00  0.00    +0.227 C 
ATOM     23  O   ALA A   7      12.939 -26.162  -2.965  0.00  0.00    -0.286 OA
ENDBRANCH  20  22
ENDBRANCH  17  20
ENDBRANCH  15  16
BRANCH  15  24
ATOM     24  CB  THR A   6      16.984 -22.597  -6.327  0.00  0.00    +0.137 C 
ATOM     25  CG2 THR A   6      18.147 -23.554  -5.988  0.00  0.00    +0.034 C 
BRANCH  24  26
ATOM     26  OG1 THR A   6      17.338 -21.858  -7.505  0.00  0.00    -0.382 OA
ATOM     27  HG1 THR A   6      17.475 -22.486  -8.258  0.00  0.00    +0.210 HD
ENDBRANCH  24  26
ENDBRANCH  15  24
ENDBRANCH  12  15
ENDBRANCH  10  11
ENDBRANCH   8  10
ENDBRANCH   5   6
BRANCH   5  28
ATOM     28  CB  THR A   4      10.908 -18.718  -5.236  0.00  0.00    +0.137 C 
ATOM     29  CG2 THR A   4      10.688 -17.663  -4.141  0.00  0.00    +0.034 C 
BRANCH  28  30
ATOM     30  OG1 THR A   4      11.052 -18.080  -6.512  0.00  0.00    -0.382 OA
ATOM     31  HG1 THR A   4      10.242 -17.545  -6.705  0.00  0.00    +0.210 HD
ENDBRANCH  28  30
ENDBRANCH   5  28
ENDBRANCH   3   5
BRANCH   1  32
ATOM     32  CA  TYR A   3      15.812 -18.456  -4.814  0.00  0.00    +0.153 C 
BRANCH  32  35
ATOM     33  C   GLU A   2      17.056 -17.968  -2.778  0.00  0.00    +0.241 C 
ATOM     34  O   GLU A   2      16.691 -16.794  -2.792  0.00  0.00    -0.273 OA
ATOM     35  N   TYR A   3      16.722 -18.830  -3.730  0.00  0.00    -0.297 N 
ATOM     36  H   TYR A   3      17.115 -19.792  -3.705  0.00  0.00    +0.150 HD
BRANCH  33  37
ATOM     37  CA  GLU A   2      17.983 -18.485  -1.661  0.00  0.00    +0.149 C 
BRANCH  37  39
ATOM     38  C   VAL A   1      19.683 -16.973  -0.754  0.00  0.00    +0.238 C 
ATOM     39  N   GLU A   2      18.414 -17.379  -0.819  0.00  0.00    -0.297 N 
ATOM     40  H   GLU A   2      17.703 -16.884  -0.244  0.00  0.00    +0.150 HD
ATOM     41  O   VAL A   1      20.623 -17.529  -1.348  0.00  0.00    -0.274 OA
BRANCH  38  42
ATOM     42  CA  VAL A   1      19.926 -15.759   0.128  0.00  0.00    +0.145 C 
BRANCH  42  43
ATOM     43  CB  VAL A   1      20.479 -14.584  -0.721  0.00  0.00    +0.025 C 
ATOM     44  CG2 VAL A   1      20.678 -13.326   0.148  0.00  0.00    +0.002 C 
ATOM     45  CG1 VAL A   1      19.538 -14.280  -1.925  0.00  0.00    +0.002 C 
ENDBRANCH  42  43
BRANCH  42  46
ATOM     46  N   VAL A   1      20.816 -16.112   1.243  0.00  0.00    -0.238 NA
ATOM     47  H   VAL A   1      21.844 -16.078   1.091  0.00  0.00    +0.142 HD
ENDBRANCH  42  46
ENDBRANCH  38  42
ENDBRANCH  37  39
BRANCH  37  48
ATOM     48  CB  GLU A   2      17.290 -19.544  -0.794  0.00  0.00    +0.041 C 
BRANCH  48  49
ATOM     49  CG  GLU A   2      16.985 -20.861  -1.513  0.00  0.00    +0.116 C 
BRANCH  49  50
ATOM     50  CD  GLU A   2      18.196 -21.398  -2.258  0.00  0.00    +0.365 C 
ATOM     51  OE2 GLU A   2      19.053 -22.038  -1.611  0.00  0.00    -0.246 OA
ATOM     52  OE1 GLU A   2      18.298 -21.143  -3.477  0.00  0.00    -0.246 OA
ENDBRANCH  49  50
ENDBRANCH  48  49
ENDBRANCH  37  48
ENDBRANCH  33  37
ENDBRANCH  32  35
BRANCH  32  53
ATOM     53  CB  TYR A   3      16.523 -18.499  -6.174  0.00  0.00    +0.055 C 
BRANCH  53  54
ATOM     54  CG  TYR A   3      17.816 -17.724  -6.193  0.00  0.00    -0.020 A 
ATOM     55  CD2 TYR A   3      19.006 -18.315  -5.763  0.00  0.00    -0.001 A 
ATOM     56  CE2 TYR A   3      20.203 -17.604  -5.765  0.00  0.00    +0.036 A 
ATOM     57  CZ  TYR A   3      20.222 -16.277  -6.185  0.00  0.00    +0.134 A 
ATOM     58  CE1 TYR A   3      19.063 -15.661  -6.615  0.00  0.00    +0.036 A 
ATOM     59  CD1 TYR A   3      17.851 -16.385  -6.609  0.00  0.00    -0.001 A 
BRANCH  57  60
ATOM     60  OH  TYR A   3      21.412 -15.581  -6.185  0.00  0.00    -0.506 OA
ATOM     61  HH  TYR A   3      21.254 -14.659  -6.509  0.00  0.00    +0.292 HD
ENDBRANCH  57  60
ENDBRANCH  53  54
ENDBRANCH  32  53
ENDBRANCH   1  32
TORSDOF 25
REMARK  Name = ../refined-set-2016/3mam/3mam_pocket.pdb
REMARK  121 active torsions:
REMARK  status: ('A' for Active; 'I' for Inactive)
REMARK    1  A    between atoms: _1  and  _3
REMARK    2  A    between atoms: _3  and  _4
REMARK    3  A    between atoms: _3  and  _6
REMARK    4  A    between atoms: _6  and  _7
REMARK    5  A    between atoms: _7  and  _8
REMARK    6  A    between atoms: _8  and  _9
REMARK    7  A    between atoms: _9  and  _10
REMARK    8  A    between atoms: _14  and  _16
REMARK    9  A    between atoms: _16  and  _17
REMARK   10  A    between atoms: _16  and  _19
REMARK   11  A    between atoms: _19  and  _20
REMARK   12  A    between atoms: _26  and  _28
REMARK   13  A    between atoms: _28  and  _29
REMARK   14  A    between atoms: _28  and  _31
REMARK   15  A    between atoms: _31  and  _32
REMARK   16  A    between atoms: _37  and  _39
REMARK   17  A    between atoms: _39  and  _40
REMARK   18  A    between atoms: _39  and  _42
REMARK   19  A    between atoms: _42  and  _43
REMARK   20  A    between atoms: _43  and  _44
REMARK   21  A    between atoms: _47  and  _49
REMARK   22  A    between atoms: _49  and  _50
REMARK   23  A    between atoms: _49  and  _52
REMARK   24  A    between atoms: _52  and  _53
REMARK   25  A    between atoms: _53  and  _54
REMARK   26  A    between atoms: _59  and  _61
REMARK   27  A    between atoms: _61  and  _62
REMARK   28  A    between atoms: _61  and  _64
REMARK   29  A    between atoms: _64  and  _65
REMARK   30  A    between atoms: _68  and  _70
REMARK   31  A    between atoms: _70  and  _71
REMARK   32  A    between atoms: _70  and  _73
REMARK   33  A    between atoms: _76  and  _78
REMARK   34  A    between atoms: _78  and  _79
REMARK   35  A    between atoms: _78  and  _81
REMARK   36  A    between atoms: _81  and  _82
REMARK   37  A    between atoms: _82  and  _83
REMARK   38  A    between atoms: _86  and  _88
REMARK   39  A    between atoms: _88  and  _89
REMARK   40  A    between atoms: _88  and  _91
REMARK   41  A    between atoms: _91  and  _92
REMARK   42  A    between atoms: _97  and  _98
REMARK   43  A    between atoms: _100  and  _102
REMARK   44  A    between atoms: _102  and  _103
REMARK   45  A    between atoms: _102  and  _105
REMARK   46  A    between atoms: _105  and  _106
REMARK   47  A    between atoms: _109  and  _111
REMARK   48  A    between atoms: _111  and  _112
REMARK   49  A    between atoms: _114  and  _116
REMARK   50  A    between atoms: _116  and  _117
REMARK   51  A    between atoms: _116  and  _119
REMARK   52  A    between atoms: _119  and  _120
REMARK   53  A    between atoms: _123  and  _125
REMARK   54  A    between atoms: _125  and  _126
REMARK   55  A    between atoms: _129  and  _131
REMARK   56  A    between atoms: _131  and  _132
REMARK   57  A    between atoms: _131  and  _134
REMARK   58  A    between atoms: _134  and  _135
REMARK   59  A    between atoms: _140  and  _142
REMARK   60  A    between atoms: _142  and  _143
REMARK   61  A    between atoms: _142  and  _145
REMARK   62  A    between atoms: _148  and  _150
REMARK   63  A    between atoms: _150  and  _151
REMARK   64  A    between atoms: _150  and  _153
REMARK   65  A    between atoms: _153  and  _154
REMARK   66  A    between atoms: _160  and  _162
REMARK   67  A    between atoms: _162  and  _163
REMARK   68  A    between atoms: _162  and  _165
REMARK   69  A    between atoms: _165  and  _166
REMARK   70  A    between atoms: _166  and  _167
REMARK   71  A    between atoms: _167  and  _168
REMARK   72  A    between atoms: _177  and  _179
REMARK   73  A    between atoms: _179  and  _180
REMARK   74  A    between atoms: _179  and  _182
REMARK   75  A    between atoms: _182  and  _183
REMARK   76  A    between atoms: _186  and  _188
REMARK   77  A    between atoms: _188  and  _189
REMARK   78  A    between atoms: _188  and  _191
REMARK   79  A    between atoms: _191  and  _192
REMARK   80  A    between atoms: _195  and  _197
REMARK   81  A    between atoms: _197  and  _198
REMARK   82  A    between atoms: _201  and  _203
REMARK   83  A    between atoms: _203  and  _204
REMARK   84  A    between atoms: _207  and  _209
REMARK   85  A    between atoms: _209  and  _210
REMARK   86  A    between atoms: _209  and  _212
REMARK   87  A    between atoms: _212  and  _213
REMARK   88  A    between atoms: _213  and  _214
REMARK   89  A    between atoms: _214  and  _215
REMARK   90  A    between atoms: _224  and  _226
REMARK   91  A    between atoms: _226  and  _227
REMARK   92  A    between atoms: _230  and  _232
REMARK   93  A    between atoms: _232  and  _233
REMARK   94  A    between atoms: _232  and  _235
REMARK   95  A    between atoms: _235  and  _236
REMARK   96  A    between atoms: _241  and  _242
REMARK   97  A    between atoms: _244  and  _246
REMARK   98  A    between atoms: _246  and  _247
REMARK   99  A    between atoms: _246  and  _249
REMARK  100  A    between atoms: _249  and  _250
REMARK  101  A    between atoms: _253  and  _255
REMARK  102  A    between atoms: _255  and  _256
REMARK  103  A    between atoms: _255  and  _258
REMARK  104  A    between atoms: _258  and  _259
REMARK  105  A    between atoms: _263  and  _264
REMARK  106  A    between atoms: _270  and  _271
REMARK  107  A    between atoms: _276  and  _278
REMARK  108  A    between atoms: _278  and  _279
REMARK  109  A    between atoms: _278  and  _281
REMARK  110  A    between atoms: _281  and  _282
REMARK  111  A    between atoms: _287  and  _288
REMARK  112  A    between atoms: _290  and  _292
REMARK  113  A    between atoms: _292  and  _293
REMARK  114  A    between atoms: _292  and  _295
REMARK  115  A    between atoms: _295  and  _296
REMARK  116  A    between atoms: _299  and  _301
REMARK  117  A    between atoms: _301  and  _302
REMARK  118  A    between atoms: _305  and  _307
REMARK  119  A    between atoms: _307  and  _308
REMARK  120  A    between atoms: _307  and  _310
REMARK  121  A    between atoms: _310  and  _311
REMARK                            x       y       z     vdW  Elec       q    Type
REMARK                         _______ _______ _______ _____ _____    ______ ____
ROOT
ATOM      1  C   ASN A   1      14.144 -28.710  -6.320  0.00  0.00    +0.239 C 
ATOM      2  N   VAL A   2      15.155 -28.028  -5.793  0.00  0.00    -0.298 N 
ATOM      3  H   VAL A   2      15.122 -26.989  -5.809  0.00  0.00    +0.150 HD
ATOM      4  O   ASN A   1      14.042 -29.938  -6.213  0.00  0.00    -0.274 OA
ENDROOT
BRANCH   1   5
ATOM      5  CA  ASN A   1      13.086 -27.899  -7.093  0.00  0.00    +0.154 C 
BRANCH   5   6
ATOM      6  N   ASN A   1      12.565 -26.725  -6.383  0.00  0.00    -0.238 NA
ATOM      7  H   ASN A   1      13.012 -25.799  -6.542  0.00  0.00    +0.142 HD
ENDBRANCH   5   6
BRANCH   5   8
ATOM      8  CB  ASN A   1      13.637 -27.502  -8.470  0.00  0.00    +0.111 C 
BRANCH   8   9
ATOM      9  CG  ASN A   1      12.570 -26.947  -9.409  0.00  0.00    +0.221 C 
ATOM     10  OD1 ASN A   1      11.391 -27.299  -9.331  0.00  0.00    -0.275 OA
ATOM     11  ND2 ASN A   1      12.997 -26.080 -10.323  0.00  0.00    -0.329 N 
ATOM     12 HD21 ASN A   1      14.001 -25.810 -10.354  0.00  0.00    +0.145 HD
ATOM     13 HD22 ASN A   1      12.327 -25.673 -11.006  0.00  0.00    +0.145 HD
ENDBRANCH   8   9
ENDBRANCH   5   8
ENDBRANCH   1   5
BRANCH   2  14
ATOM     14  CA  VAL A   2      16.323 -28.695  -5.186  0.00  0.00    +0.137 C 
BRANCH  14  15
ATOM     15  CB  VAL A   2      17.606 -27.829  -5.381  0.00  0.00    +0.026 C 
ATOM     16  CG2 VAL A   2      18.849 -28.500  -4.790  0.00  0.00    +0.002 C 
ATOM     17  CG1 VAL A   2      17.820 -27.547  -6.861  0.00  0.00    +0.002 C 
ENDBRANCH  14  15
BRANCH  14  18
ATOM     18  C   VAL A   2      16.111 -29.063  -3.709  0.00  0.00    +0.227 C 
ATOM     19  O   VAL A   2      16.457 -30.164  -3.275  0.00  0.00    -0.286 OA
ENDBRANCH  14  18
ENDBRANCH   2  14
TORSDOF 7
REMARK  Name = ../refined-set-2016/3mam/3mam_pocket.pdb
REMARK  121 active torsions:
REMARK  status: ('A' for Active; 'I' for Inactive)
REMARK    1  A    between atoms: _1  and  _3
REMARK    2  A    between atoms: _3  and  _4
REMARK    3  A    between atoms: _3  and  _6
REMARK    4  A    between atoms: _6  and  _7
REMARK    5  A    between atoms: _7  and  _8
REMARK    6  A    between atoms: _8  and  _9
REMARK    7  A    between atoms: _9  and  _10
REMARK    8  A    between atoms: _14  and  _16
REMARK    9  A    between atoms: _16  and  _17
REMARK   10  A    between atoms: _16  and  _19
REMARK   11  A    between atoms: _19  and  _20
REMARK   12  A    between atoms: _26  and  _28
REMARK   13  A    between atoms: _28  and  _29
REMARK   14  A    between atoms: _28  and  _31
REMARK   15  A    between atoms: _31  and  _32
REMARK   16  A    between atoms: _37  and  _39
REMARK   17  A    between atoms: _39  and  _40
REMARK   18  A    between atoms: _39  and  _42
REMARK   19  A    between atoms: _42  and  _43
REMARK   20  A    between atoms: _43  and  _44
REMARK   21  A    between atoms: _47  and  _49
REMARK   22  A    between atoms: _49  and  _50
REMARK   23  A    between atoms: _49  and  _52
REMARK   24  A    between atoms: _52  and  _53
REMARK   25  A    between atoms: _53  and  _54
REMARK   26  A    between atoms: _59  and  _61
REMARK   27  A    between atoms: _61  and  _62
REMARK   28  A    between atoms: _61  and  _64
REMARK   29  A    between atoms: _64  and  _65
REMARK   30  A    between atoms: _68  and  _70
REMARK   31  A    between atoms: _70  and  _71
REMARK   32  A    between atoms: _70  and  _73
REMARK   33  A    between atoms: _76  and  _78
REMARK   34  A    between atoms: _78  and  _79
REMARK   35  A    between atoms: _78  and  _81
REMARK   36  A    between atoms: _81  and  _82
REMARK   37  A    between atoms: _82  and  _83
REMARK   38  A    between atoms: _86  and  _88
REMARK   39  A    between atoms: _88  and  _89
REMARK   40  A    between atoms: _88  and  _91
REMARK   41  A    between atoms: _91  and  _92
REMARK   42  A    between atoms: _97  and  _98
REMARK   43  A    between atoms: _100  and  _102
REMARK   44  A    between atoms: _102  and  _103
REMARK   45  A    between atoms: _102  and  _105
REMARK   46  A    between atoms: _105  and  _106
REMARK   47  A    between atoms: _109  and  _111
REMARK   48  A    between atoms: _111  and  _112
REMARK   49  A    between atoms: _114  and  _116
REMARK   50  A    between atoms: _116  and  _117
REMARK   51  A    between atoms: _116  and  _119
REMARK   52  A    between atoms: _119  and  _120
REMARK   53  A    between atoms: _123  and  _125
REMARK   54  A    between atoms: _125  and  _126
REMARK   55  A    between atoms: _129  and  _131
REMARK   56  A    between atoms: _131  and  _132
REMARK   57  A    between atoms: _131  and  _134
REMARK   58  A    between atoms: _134  and  _135
REMARK   59  A    between atoms: _140  and  _142
REMARK   60  A    between atoms: _142  and  _143
REMARK   61  A    between atoms: _142  and  _145
REMARK   62  A    between atoms: _148  and  _150
REMARK   63  A    between atoms: _150  and  _151
REMARK   64  A    between atoms: _150  and  _153
REMARK   65  A    between atoms: _153  and  _154
REMARK   66  A    between atoms: _160  and  _162
REMARK   67  A    between atoms: _162  and  _163
REMARK   68  A    between atoms: _162  and  _165
REMARK   69  A    between atoms: _165  and  _166
REMARK   70  A    between atoms: _166  and  _167
REMARK   71  A    between atoms: _167  and  _168
REMARK   72  A    between atoms: _177  and  _179
REMARK   73  A    between atoms: _179  and  _180
REMARK   74  A    between atoms: _179  and  _182
REMARK   75  A    between atoms: _182  and  _183
REMARK   76  A    between atoms: _186  and  _188
REMARK   77  A    between atoms: _188  and  _189
REMARK   78  A    between atoms: _188  and  _191
REMARK   79  A    between atoms: _191  and  _192
REMARK   80  A    between atoms: _195  and  _197
REMARK   81  A    between atoms: _197  and  _198
REMARK   82  A    between atoms: _201  and  _203
REMARK   83  A    between atoms: _203  and  _204
REMARK   84  A    between atoms: _207  and  _209
REMARK   85  A    between atoms: _209  and  _210
REMARK   86  A    between atoms: _209  and  _212
REMARK   87  A    between atoms: _212  and  _213
REMARK   88  A    between atoms: _213  and  _214
REMARK   89  A    between atoms: _214  and  _215
REMARK   90  A    between atoms: _224  and  _226
REMARK   91  A    between atoms: _226  and  _227
REMARK   92  A    between atoms: _230  and  _232
REMARK   93  A    between atoms: _232  and  _233
REMARK   94  A    between atoms: _232  and  _235
REMARK   95  A    between atoms: _235  and  _236
REMARK   96  A    between atoms: _241  and  _242
REMARK   97  A    between atoms: _244  and  _246
REMARK   98  A    between atoms: _246  and  _247
REMARK   99  A    between atoms: _246  and  _249
REMARK  100  A    between atoms: _249  and  _250
REMARK  101  A    between atoms: _253  and  _255
REMARK  102  A    between atoms: _255  and  _256
REMARK  103  A    between atoms: _255  and  _258
REMARK  104  A    between atoms: _258  and  _259
REMARK  105  A    between atoms: _263  and  _264
REMARK  106  A    between atoms: _270  and  _271
REMARK  107  A    between atoms: _276  and  _278
REMARK  108  A    between atoms: _278  and  _279
REMARK  109  A    between atoms: _278  and  _281
REMARK  110  A    between atoms: _281  and  _282
REMARK  111  A    between atoms: _287  and  _288
REMARK  112  A    between atoms: _290  and  _292
REMARK  113  A    between atoms: _292  and  _293
REMARK  114  A    between atoms: _292  and  _295
REMARK  115  A    between atoms: _295  and  _296
REMARK  116  A    between atoms: _299  and  _301
REMARK  117  A    between atoms: _301  and  _302
REMARK  118  A    between atoms: _305  and  _307
REMARK  119  A    between atoms: _307  and  _308
REMARK  120  A    between atoms: _307  and  _310
REMARK  121  A    between atoms: _310  and  _311
REMARK                            x       y       z     vdW  Elec       q    Type
REMARK                         _______ _______ _______ _____ _____    ______ ____
ROOT
ATOM      1  C   ARG A   2      15.797 -12.823 -10.749  0.00  0.00    +0.241 C 
ATOM      2  N   ASP A   3      16.416 -13.982 -10.537  0.00  0.00    -0.297 N 
ATOM      3  H   ASP A   3      16.051 -14.621  -9.802  0.00  0.00    +0.150 HD
ATOM      4  O   ARG A   2      16.231 -11.955 -11.517  0.00  0.00    -0.273 OA
ENDROOT
BRANCH   2   5
ATOM      5  CA  ASP A   3      17.595 -14.386 -11.306  0.00  0.00    +0.160 C 
BRANCH   5   6
ATOM      6  C   ASP A   3      17.181 -15.645 -12.066  0.00  0.00    +0.241 C 
ATOM      7  O   ASP A   3      17.421 -16.769 -11.624  0.00  0.00    -0.273 OA
ATOM      8  N   ASP A   4      16.538 -15.429 -13.214  0.00  0.00    -0.297 N 
ATOM      9  H   ASP A   4      16.502 -14.458 -13.584  0.00  0.00    +0.150 HD
BRANCH   8  10
ATOM     10  CA  ASP A   4      15.884 -16.482 -13.976  0.00  0.00    +0.160 C 
BRANCH  10  11
ATOM     11  C   ASP A   4      16.705 -16.880 -15.193  0.00  0.00    +0.241 C 
ATOM     12  N   ALA A   5      16.584 -18.140 -15.603  0.00  0.00    -0.297 N 
ATOM     13  H   ALA A   5      16.237 -18.867 -14.945  0.00  0.00    +0.150 HD
ATOM     14  O   ASP A   4      17.399 -16.049 -15.775  0.00  0.00    -0.273 OA
BRANCH  12  15
ATOM     15  CA  ALA A   5      16.934 -18.506 -16.966  0.00  0.00    +0.149 C 
ATOM     16  CB  ALA A   5      17.033 -20.025 -17.133  0.00  0.00    +0.031 C 
BRANCH  15  17
ATOM     17  C   ALA A   5      15.848 -17.930 -17.862  0.00  0.00    +0.241 C 
ATOM     18  O   ALA A   5      14.657 -18.132 -17.631  0.00  0.00    -0.273 OA
ATOM     19  N   ALA A   6      16.264 -17.184 -18.873  0.00  0.00    -0.298 N 
ATOM     20  H   ALA A   6      17.283 -17.108 -19.065  0.00  0.00    +0.150 HD
BRANCH  19  21
ATOM     21  CA  ALA A   6      15.326 -16.469 -19.720  0.00  0.00    +0.137 C 
ATOM     22  CB  ALA A   6      15.145 -15.054 -19.204  0.00  0.00    +0.030 C 
BRANCH  21  23
ATOM     23  C   ALA A   6      15.849 -16.446 -21.139  0.00  0.00    +0.227 C 
ATOM     24  O   ALA A   6      16.906 -17.014 -21.417  0.00  0.00    -0.286 OA
ENDBRANCH  21  23
ENDBRANCH  19  21
ENDBRANCH  15  17
ENDBRANCH  12  15
ENDBRANCH  10  11
BRANCH  10  25
ATOM     25  CB  ASP A   4      14.560 -15.956 -14.538  0.00  0.00    +0.143 C 
BRANCH  25  26
ATOM     26  CG  ASP A   4      13.530 -15.648 -13.480  0.00  0.00    +0.367 C 
ATOM     27  OD2 ASP A   4      13.710 -16.006 -12.296  0.00  0.00    -0.246 OA
ATOM     28  OD1 ASP A   4      12.517 -15.027 -13.856  0.00  0.00    -0.246 OA
ENDBRANCH  25  26
ENDBRANCH  10  25
ENDBRANCH   8  10
ENDBRANCH   5   6
BRANCH   5  29
ATOM     29  CB  ASP A   3      18.815 -14.602 -10.378  0.00  0.00    +0.143 C 
BRANCH  29  30
ATOM     30  CG  ASP A   3      20.098 -15.011 -11.132  0.00  0.00    +0.367 C 
ATOM     31  OD2 ASP A   3      21.170 -15.122 -10.474  0.00  0.00    -0.246 OA
ATOM     32  OD1 ASP A   3      20.065 -15.185 -12.371  0.00  0.00    -0.246 OA
ENDBRANCH  29  30
ENDBRANCH   5  29
ENDBRANCH   2   5
BRANCH   1  33
ATOM     33  CA  ARG A   2      14.495 -12.597  -9.994  0.00  0.00    +0.149 C 
BRANCH  33  36
ATOM     34  C   PHE A   1      14.484 -10.771  -8.355  0.00  0.00    +0.239 C 
ATOM     35  O   PHE A   1      14.440 -11.523  -7.391  0.00  0.00    -0.274 OA
ATOM     36  N   ARG A   2      14.435 -11.183  -9.618  0.00  0.00    -0.297 N 
ATOM     37  H   ARG A   2      14.350 -10.471 -10.371  0.00  0.00    +0.150 HD
BRANCH  34  38
ATOM     38  CA  PHE A   1      14.590  -9.264  -8.152  0.00  0.00    +0.149 C 
BRANCH  38  39
ATOM     39  N   PHE A   1      14.113  -8.871  -6.830  0.00  0.00    -0.238 NA
ATOM     40  H   PHE A   1      14.438  -9.401  -5.996  0.00  0.00    +0.142 HD
ENDBRANCH  38  39
BRANCH  38  41
ATOM     41  CB  PHE A   1      16.042  -8.811  -8.378  0.00  0.00    +0.053 C 
BRANCH  41  42
ATOM     42  CG  PHE A   1      17.083  -9.665  -7.675  0.00  0.00    -0.020 A 
ATOM     43  CD2 PHE A   1      17.598  -9.284  -6.437  0.00  0.00    -0.004 A 
ATOM     44  CE2 PHE A   1      18.569 -10.047  -5.787  0.00  0.00    -0.000 A 
ATOM     45  CZ  PHE A   1      19.047 -11.222  -6.384  0.00  0.00    -0.000 A 
ATOM     46  CE1 PHE A   1      18.557 -11.604  -7.633  0.00  0.00    -0.000 A 
ATOM     47  CD1 PHE A   1      17.579 -10.823  -8.274  0.00  0.00    -0.004 A 
ENDBRANCH  41  42
ENDBRANCH  38  41
ENDBRANCH  34  38
ENDBRANCH  33  36
BRANCH  33  48
ATOM     48  CB  ARG A   2      13.300 -12.966 -10.885  0.00  0.00    +0.033 C 
BRANCH  48  49
ATOM     49  CG  ARG A   2      11.995 -13.206 -10.104  0.00  0.00    +0.045 C 
BRANCH  49  50
ATOM     50  CD  ARG A   2      10.747 -13.108 -11.006  0.00  0.00    +0.174 C 
BRANCH  50  51
ATOM     51  NE  ARG A   2      10.715 -14.115 -12.072  0.00  0.00    -0.265 N 
ATOM     52  HE  ARG A   2      11.602 -14.604 -12.307  0.00  0.00    +0.259 HD
ATOM     53  CZ  ARG A   2       9.618 -14.443 -12.760  0.00  0.00    +0.342 C 
ATOM     54  NH2 ARG A   2       8.452 -13.859 -12.485  0.00  0.00    -0.292 N 
ATOM     55 HH21 ARG A   2       8.393 -13.144 -11.732  0.00  0.00    +0.255 HD
ATOM     56 HH22 ARG A   2       7.601 -14.118 -13.024  0.00  0.00    +0.255 HD
ATOM     57  NH1 ARG A   2       9.678 -15.368 -13.712  0.00  0.00    -0.292 N 
ATOM     58 HH11 ARG A   2      10.581 -15.839 -13.923  0.00  0.00    +0.255 HD
ATOM     59 HH12 ARG A   2       8.822 -15.621 -14.246  0.00  0.00    +0.255 HD
ENDBRANCH  50  51
ENDBRANCH  49  50
ENDBRANCH  48  49
ENDBRANCH  33  48
ENDBRANCH   1  33
TORSDOF 22
REMARK  Name = ../refined-set-2016/3mam/3mam_pocket.pdb
REMARK  121 active torsions:
REMARK  status: ('A' for Active; 'I' for Inactive)
REMARK    1  A    between atoms: _1  and  _3
REMARK    2  A    between atoms: _3  and  _4
REMARK    3  A    between atoms: _3  and  _6
REMARK    4  A    between atoms: _6  and  _7
REMARK    5  A    between atoms: _7  and  _8
REMARK    6  A    between atoms: _8  and  _9
REMARK    7  A    between atoms: _9  and  _10
REMARK    8  A    between atoms: _14  and  _16
REMARK    9  A    between atoms: _16  and  _17
REMARK   10  A    between atoms: _16  and  _19
REMARK   11  A    between atoms: _19  and  _20
REMARK   12  A    between atoms: _26  and  _28
REMARK   13  A    between atoms: _28  and  _29
REMARK   14  A    between atoms: _28  and  _31
REMARK   15  A    between atoms: _31  and  _32
REMARK   16  A    between atoms: _37  and  _39
REMARK   17  A    between atoms: _39  and  _40
REMARK   18  A    between atoms: _39  and  _42
REMARK   19  A    between atoms: _42  and  _43
REMARK   20  A    between atoms: _43  and  _44
REMARK   21  A    between atoms: _47  and  _49
REMARK   22  A    between atoms: _49  and  _50
REMARK   23  A    between atoms: _49  and  _52
REMARK   24  A    between atoms: _52  and  _53
REMARK   25  A    between atoms: _53  and  _54
REMARK   26  A    between atoms: _59  and  _61
REMARK   27  A    between atoms: _61  and  _62
REMARK   28  A    between atoms: _61  and  _64
REMARK   29  A    between atoms: _64  and  _65
REMARK   30  A    between atoms: _68  and  _70
REMARK   31  A    between atoms: _70  and  _71
REMARK   32  A    between atoms: _70  and  _73
REMARK   33  A    between atoms: _76  and  _78
REMARK   34  A    between atoms: _78  and  _79
REMARK   35  A    between atoms: _78  and  _81
REMARK   36  A    between atoms: _81  and  _82
REMARK   37  A    between atoms: _82  and  _83
REMARK   38  A    between atoms: _86  and  _88
REMARK   39  A    between atoms: _88  and  _89
REMARK   40  A    between atoms: _88  and  _91
REMARK   41  A    between atoms: _91  and  _92
REMARK   42  A    between atoms: _97  and  _98
REMARK   43  A    between atoms: _100  and  _102
REMARK   44  A    between atoms: _102  and  _103
REMARK   45  A    between atoms: _102  and  _105
REMARK   46  A    between atoms: _105  and  _106
REMARK   47  A    between atoms: _109  and  _111
REMARK   48  A    between atoms: _111  and  _112
REMARK   49  A    between atoms: _114  and  _116
REMARK   50  A    between atoms: _116  and  _117
REMARK   51  A    between atoms: _116  and  _119
REMARK   52  A    between atoms: _119  and  _120
REMARK   53  A    between atoms: _123  and  _125
REMARK   54  A    between atoms: _125  and  _126
REMARK   55  A    between atoms: _129  and  _131
REMARK   56  A    between atoms: _131  and  _132
REMARK   57  A    between atoms: _131  and  _134
REMARK   58  A    between atoms: _134  and  _135
REMARK   59  A    between atoms: _140  and  _142
REMARK   60  A    between atoms: _142  and  _143
REMARK   61  A    between atoms: _142  and  _145
REMARK   62  A    between atoms: _148  and  _150
REMARK   63  A    between atoms: _150  and  _151
REMARK   64  A    between atoms: _150  and  _153
REMARK   65  A    between atoms: _153  and  _154
REMARK   66  A    between atoms: _160  and  _162
REMARK   67  A    between atoms: _162  and  _163
REMARK   68  A    between atoms: _162  and  _165
REMARK   69  A    between atoms: _165  and  _166
REMARK   70  A    between atoms: _166  and  _167
REMARK   71  A    between atoms: _167  and  _168
REMARK   72  A    between atoms: _177  and  _179
REMARK   73  A    between atoms: _179  and  _180
REMARK   74  A    between atoms: _179  and  _182
REMARK   75  A    between atoms: _182  and  _183
REMARK   76  A    between atoms: _186  and  _188
REMARK   77  A    between atoms: _188  and  _189
REMARK   78  A    between atoms: _188  and  _191
REMARK   79  A    between atoms: _191  and  _192
REMARK   80  A    between atoms: _195  and  _197
REMARK   81  A    between atoms: _197  and  _198
REMARK   82  A    between atoms: _201  and  _203
REMARK   83  A    between atoms: _203  and  _204
REMARK   84  A    between atoms: _207  and  _209
REMARK   85  A    between atoms: _209  and  _210
REMARK   86  A    between atoms: _209  and  _212
REMARK   87  A    between atoms: _212  and  _213
REMARK   88  A    between atoms: _213  and  _214
REMARK   89  A    between atoms: _214  and  _215
REMARK   90  A    between atoms: _224  and  _226
REMARK   91  A    between atoms: _226  and  _227
REMARK   92  A    between atoms: _230  and  _232
REMARK   93  A    between atoms: _232  and  _233
REMARK   94  A    between atoms: _232  and  _235
REMARK   95  A    between atoms: _235  and  _236
REMARK   96  A    between atoms: _241  and  _242
REMARK   97  A    between atoms: _244  and  _246
REMARK   98  A    between atoms: _246  and  _247
REMARK   99  A    between atoms: _246  and  _249
REMARK  100  A    between atoms: _249  and  _250
REMARK  101  A    between atoms: _253  and  _255
REMARK  102  A    between atoms: _255  and  _256
REMARK  103  A    between atoms: _255  and  _258
REMARK  104  A    between atoms: _258  and  _259
REMARK  105  A    between atoms: _263  and  _264
REMARK  106  A    between atoms: _270  and  _271
REMARK  107  A    between atoms: _276  and  _278
REMARK  108  A    between atoms: _278  and  _279
REMARK  109  A    between atoms: _278  and  _281
REMARK  110  A    between atoms: _281  and  _282
REMARK  111  A    between atoms: _287  and  _288
REMARK  112  A    between atoms: _290  and  _292
REMARK  113  A    between atoms: _292  and  _293
REMARK  114  A    between atoms: _292  and  _295
REMARK  115  A    between atoms: _295  and  _296
REMARK  116  A    between atoms: _299  and  _301
REMARK  117  A    between atoms: _301  and  _302
REMARK  118  A    between atoms: _305  and  _307
REMARK  119  A    between atoms: _307  and  _308
REMARK  120  A    between atoms: _307  and  _310
REMARK  121  A    between atoms: _310  and  _311
REMARK                            x       y       z     vdW  Elec       q    Type
REMARK                         _______ _______ _______ _____ _____    ______ ____
ROOT
ATOM      1  NE  ARG A   1      17.726 -24.184 -17.991  0.00  0.00    -0.265 N 
ATOM      2  CZ  ARG A   1      18.846 -23.470 -17.891  0.00  0.00    +0.342 C 
ATOM      3  NH2 ARG A   1      19.757 -23.777 -16.975  0.00  0.00    -0.292 N 
ATOM      4 HH21 ARG A   1      19.598 -24.578 -16.331  0.00  0.00    +0.255 HD
ATOM      5 HH22 ARG A   1      20.630 -23.216 -16.901  0.00  0.00    +0.255 HD
ATOM      6  NH1 ARG A   1      19.057 -22.444 -18.706  0.00  0.00    -0.292 N 
ATOM      7 HH11 ARG A   1      19.932 -21.888 -18.626  0.00  0.00    +0.255 HD
ATOM      8 HH12 ARG A   1      18.347 -22.196 -19.425  0.00  0.00    +0.255 HD
ATOM      9  HE  ARG A   1      17.040 -23.910 -18.723  0.00  0.00    +0.259 HD
ENDROOT
BRANCH   1  10
ATOM     10  CD  ARG A   1      17.395 -25.328 -17.141  0.00  0.00    +0.174 C 
BRANCH  10  11
ATOM     11  CG  ARG A   1      16.117 -26.021 -17.579  0.00  0.00    +0.045 C 
BRANCH  11  12
ATOM     12  CB  ARG A   1      16.352 -26.874 -18.811  0.00  0.00    +0.029 C 
BRANCH  12  13
ATOM     13  CA  ARG A   1      16.508 -28.378 -18.558  0.00  0.00    +0.133 C 
BRANCH  13  14
ATOM     14  N   ARG A   1      17.553 -28.911 -19.433  0.00  0.00    -0.239 NA
ATOM     15  H   ARG A   1      17.968 -28.277 -20.146  0.00  0.00    +0.142 HD
ENDBRANCH  13  14
BRANCH  13  16
ATOM     16  C   ARG A   1      15.177 -29.079 -18.842  0.00  0.00    +0.224 C 
ATOM     17  O   ARG A   1      14.866 -29.349 -20.002  0.00  0.00    -0.287 OA
ENDBRANCH  13  16
ENDBRANCH  12  13
ENDBRANCH  11  12
ENDBRANCH  10  11
ENDBRANCH   1  10
TORSDOF 6
REMARK  Name = ../refined-set-2016/3mam/3mam_pocket.pdb
REMARK  121 active torsions:
REMARK  status: ('A' for Active; 'I' for Inactive)
REMARK    1  A    between atoms: _1  and  _3
REMARK    2  A    between atoms: _3  and  _4
REMARK    3  A    between atoms: _3  and  _6
REMARK    4  A    between atoms: _6  and  _7
REMARK    5  A    between atoms: _7  and  _8
REMARK    6  A    between atoms: _8  and  _9
REMARK    7  A    between atoms: _9  and  _10
REMARK    8  A    between atoms: _14  and  _16
REMARK    9  A    between atoms: _16  and  _17
REMARK   10  A    between atoms: _16  and  _19
REMARK   11  A    between atoms: _19  and  _20
REMARK   12  A    between atoms: _26  and  _28
REMARK   13  A    between atoms: _28  and  _29
REMARK   14  A    between atoms: _28  and  _31
REMARK   15  A    between atoms: _31  and  _32
REMARK   16  A    between atoms: _37  and  _39
REMARK   17  A    between atoms: _39  and  _40
REMARK   18  A    between atoms: _39  and  _42
REMARK   19  A    between atoms: _42  and  _43
REMARK   20  A    between atoms: _43  and  _44
REMARK   21  A    between atoms: _47  and  _49
REMARK   22  A    between atoms: _49  and  _50
REMARK   23  A    between atoms: _49  and  _52
REMARK   24  A    between atoms: _52  and  _53
REMARK   25  A    between atoms: _53  and  _54
REMARK   26  A    between atoms: _59  and  _61
REMARK   27  A    between atoms: _61  and  _62
REMARK   28  A    between atoms: _61  and  _64
REMARK   29  A    between atoms: _64  and  _65
REMARK   30  A    between atoms: _68  and  _70
REMARK   31  A    between atoms: _70  and  _71
REMARK   32  A    between atoms: _70  and  _73
REMARK   33  A    between atoms: _76  and  _78
REMARK   34  A    between atoms: _78  and  _79
REMARK   35  A    between atoms: _78  and  _81
REMARK   36  A    between atoms: _81  and  _82
REMARK   37  A    between atoms: _82  and  _83
REMARK   38  A    between atoms: _86  and  _88
REMARK   39  A    between atoms: _88  and  _89
REMARK   40  A    between atoms: _88  and  _91
REMARK   41  A    between atoms: _91  and  _92
REMARK   42  A    between atoms: _97  and  _98
REMARK   43  A    between atoms: _100  and  _102
REMARK   44  A    between atoms: _102  and  _103
REMARK   45  A    between atoms: _102  and  _105
REMARK   46  A    between atoms: _105  and  _106
REMARK   47  A    between atoms: _109  and  _111
REMARK   48  A    between atoms: _111  and  _112
REMARK   49  A    between atoms: _114  and  _116
REMARK   50  A    between atoms: _116  and  _117
REMARK   51  A    between atoms: _116  and  _119
REMARK   52  A    between atoms: _119  and  _120
REMARK   53  A    between atoms: _123  and  _125
REMARK   54  A    between atoms: _125  and  _126
REMARK   55  A    between atoms: _129  and  _131
REMARK   56  A    between atoms: _131  and  _132
REMARK   57  A    between atoms: _131  and  _134
REMARK   58  A    between atoms: _134  and  _135
REMARK   59  A    between atoms: _140  and  _142
REMARK   60  A    between atoms: _142  and  _143
REMARK   61  A    between atoms: _142  and  _145
REMARK   62  A    between atoms: _148  and  _150
REMARK   63  A    between atoms: _150  and  _151
REMARK   64  A    between atoms: _150  and  _153
REMARK   65  A    between atoms: _153  and  _154
REMARK   66  A    between atoms: _160  and  _162
REMARK   67  A    between atoms: _162  and  _163
REMARK   68  A    between atoms: _162  and  _165
REMARK   69  A    between atoms: _165  and  _166
REMARK   70  A    between atoms: _166  and  _167
REMARK   71  A    between atoms: _167  and  _168
REMARK   72  A    between atoms: _177  and  _179
REMARK   73  A    between atoms: _179  and  _180
REMARK   74  A    between atoms: _179  and  _182
REMARK   75  A    between atoms: _182  and  _183
REMARK   76  A    between atoms: _186  and  _188
REMARK   77  A    between atoms: _188  and  _189
REMARK   78  A    between atoms: _188  and  _191
REMARK   79  A    between atoms: _191  and  _192
REMARK   80  A    between atoms: _195  and  _197
REMARK   81  A    between atoms: _197  and  _198
REMARK   82  A    between atoms: _201  and  _203
REMARK   83  A    between atoms: _203  and  _204
REMARK   84  A    between atoms: _207  and  _209
REMARK   85  A    between atoms: _209  and  _210
REMARK   86  A    between atoms: _209  and  _212
REMARK   87  A    between atoms: _212  and  _213
REMARK   88  A    between atoms: _213  and  _214
REMARK   89  A    between atoms: _214  and  _215
REMARK   90  A    between atoms: _224  and  _226
REMARK   91  A    between atoms: _226  and  _227
REMARK   92  A    between atoms: _230  and  _232
REMARK   93  A    between atoms: _232  and  _233
REMARK   94  A    between atoms: _232  and  _235
REMARK   95  A    between atoms: _235  and  _236
REMARK   96  A    between atoms: _241  and  _242
REMARK   97  A    between atoms: _244  and  _246
REMARK   98  A    between atoms: _246  and  _247
REMARK   99  A    between atoms: _246  and  _249
REMARK  100  A    between atoms: _249  and  _250
REMARK  101  A    between atoms: _253  and  _255
REMARK  102  A    between atoms: _255  and  _256
REMARK  103  A    between atoms: _255  and  _258
REMARK  104  A    between atoms: _258  and  _259
REMARK  105  A    between atoms: _263  and  _264
REMARK  106  A    between atoms: _270  and  _271
REMARK  107  A    between atoms: _276  and  _278
REMARK  108  A    between atoms: _278  and  _279
REMARK  109  A    between atoms: _278  and  _281
REMARK  110  A    between atoms: _281  and  _282
REMARK  111  A    between atoms: _287  and  _288
REMARK  112  A    between atoms: _290  and  _292
REMARK  113  A    between atoms: _292  and  _293
REMARK  114  A    between atoms: _292  and  _295
REMARK  115  A    between atoms: _295  and  _296
REMARK  116  A    between atoms: _299  and  _301
REMARK  117  A    between atoms: _301  and  _302
REMARK  118  A    between atoms: _305  and  _307
REMARK  119  A    between atoms: _307  and  _308
REMARK  120  A    between atoms: _307  and  _310
REMARK  121  A    between atoms: _310  and  _311
REMARK                            x       y       z     vdW  Elec       q    Type
REMARK                         _______ _______ _______ _____ _____    ______ ____
ROOT
ATOM      1  C   TYR A   2      20.007 -13.848 -16.680  0.00  0.00    +0.241 C 
ATOM      2  N   THR A   3      18.850 -13.510 -16.116  0.00  0.00    -0.295 N 
ATOM      3  H   THR A   3      18.259 -14.259 -15.701  0.00  0.00    +0.150 HD
ATOM      4  O   TYR A   2      20.830 -13.032 -17.075  0.00  0.00    -0.273 OA
ENDROOT
BRANCH   1   5
ATOM      5  CA  TYR A   2      20.272 -15.338 -16.823  0.00  0.00    +0.153 C 
BRANCH   5   7
ATOM      6  C   ALA A   1      20.013 -15.745 -19.195  0.00  0.00    +0.238 C 
ATOM      7  N   TYR A   2      20.823 -15.647 -18.145  0.00  0.00    -0.297 N 
ATOM      8  H   TYR A   2      21.847 -15.790 -18.262  0.00  0.00    +0.150 HD
ATOM      9  O   ALA A   1      18.786 -15.685 -19.101  0.00  0.00    -0.274 OA
BRANCH   6  10
ATOM     10  CA  ALA A   1      20.676 -15.947 -20.549  0.00  0.00    +0.145 C 
ATOM     11  CB  ALA A   1      20.917 -14.609 -21.233  0.00  0.00    +0.028 C 
BRANCH  10  12
ATOM     12  N   ALA A   1      19.833 -16.798 -21.374  0.00  0.00    -0.238 NA
ATOM     13  H   ALA A   1      18.805 -16.790 -21.219  0.00  0.00    +0.142 HD
ENDBRANCH  10  12
ENDBRANCH   6  10
ENDBRANCH   5   7
BRANCH   5  14
ATOM     14  CB  TYR A   2      21.190 -15.839 -15.720  0.00  0.00    +0.055 C 
BRANCH  14  15
ATOM     15  CG  TYR A   2      21.155 -17.337 -15.622  0.00  0.00    -0.020 A 
ATOM     16  CD2 TYR A   2      20.154 -17.980 -14.895  0.00  0.00    -0.001 A 
ATOM     17  CE2 TYR A   2      20.110 -19.368 -14.807  0.00  0.00    +0.036 A 
ATOM     18  CZ  TYR A   2      21.062 -20.118 -15.456  0.00  0.00    +0.134 A 
ATOM     19  CE1 TYR A   2      22.062 -19.509 -16.194  0.00  0.00    +0.036 A 
ATOM     20  CD1 TYR A   2      22.104 -18.119 -16.272  0.00  0.00    -0.001 A 
BRANCH  18  21
ATOM     21  OH  TYR A   2      21.005 -21.486 -15.373  0.00  0.00    -0.506 OA
ATOM     22  HH  TYR A   2      20.234 -21.749 -14.810  0.00  0.00    +0.292 HD
ENDBRANCH  18  21
ENDBRANCH  14  15
ENDBRANCH   5  14
ENDBRANCH   1   5
BRANCH   2  23
ATOM     23  CA  THR A   3      18.372 -12.114 -16.056  0.00  0.00    +0.176 C 
BRANCH  23  24
ATOM     24  C   THR A   3      19.313 -11.130 -15.346  0.00  0.00    +0.243 C 
ATOM     25  N   THR A   4      20.102 -11.613 -14.381  0.00  0.00    -0.296 N 
ATOM     26  H   THR A   4      20.063 -12.626 -14.147  0.00  0.00    +0.150 HD
ATOM     27  O   THR A   3      19.316  -9.932 -15.668  0.00  0.00    -0.273 OA
BRANCH  25  28
ATOM     28  CA  THR A   4      21.030 -10.731 -13.641  0.00  0.00    +0.164 C 
BRANCH  28  29
ATOM     29  CB  THR A   4      20.994 -10.979 -12.113  0.00  0.00    +0.136 C 
ATOM     30  CG2 THR A   4      19.616 -10.640 -11.542  0.00  0.00    +0.034 C 
BRANCH  29  31
ATOM     31  OG1 THR A   4      21.308 -12.352 -11.847  0.00  0.00    -0.382 OA
ATOM     32  HG1 THR A   4      21.285 -12.511 -10.870  0.00  0.00    +0.210 HD
ENDBRANCH  29  31
ENDBRANCH  28  29
BRANCH  28  33
ATOM     33  C   THR A   4      22.486 -10.839 -14.103  0.00  0.00    +0.229 C 
ATOM     34  O   THR A   4      23.392 -10.303 -13.454  0.00  0.00    -0.286 OA
ENDBRANCH  28  33
ENDBRANCH  25  28
ENDBRANCH  23  24
BRANCH  23  35
ATOM     35  CB  THR A   3      16.983 -12.030 -15.399  0.00  0.00    +0.137 C 
ATOM     36  CG2 THR A   3      15.934 -12.781 -16.234  0.00  0.00    +0.034 C 
BRANCH  35  37
ATOM     37  OG1 THR A   3      17.057 -12.608 -14.095  0.00  0.00    -0.382 OA
ATOM     38  HG1 THR A   3      16.168 -12.559 -13.663  0.00  0.00    +0.210 HD
ENDBRANCH  35  37
ENDBRANCH  23  35
ENDBRANCH   2  23
TORSDOF 15
REMARK  Name = ../refined-set-2016/3mam/3mam_pocket.pdb
REMARK  121 active torsions:
REMARK  status: ('A' for Active; 'I' for Inactive)
REMARK    1  A    between atoms: _1  and  _3
REMARK    2  A    between atoms: _3  and  _4
REMARK    3  A    between atoms: _3  and  _6
REMARK    4  A    between atoms: _6  and  _7
REMARK    5  A    between atoms: _7  and  _8
REMARK    6  A    between atoms: _8  and  _9
REMARK    7  A    between atoms: _9  and  _10
REMARK    8  A    between atoms: _14  and  _16
REMARK    9  A    between atoms: _16  and  _17
REMARK   10  A    between atoms: _16  and  _19
REMARK   11  A    between atoms: _19  and  _20
REMARK   12  A    between atoms: _26  and  _28
REMARK   13  A    between atoms: _28  and  _29
REMARK   14  A    between atoms: _28  and  _31
REMARK   15  A    between atoms: _31  and  _32
REMARK   16  A    between atoms: _37  and  _39
REMARK   17  A    between atoms: _39  and  _40
REMARK   18  A    between atoms: _39  and  _42
REMARK   19  A    between atoms: _42  and  _43
REMARK   20  A    between atoms: _43  and  _44
REMARK   21  A    between atoms: _47  and  _49
REMARK   22  A    between atoms: _49  and  _50
REMARK   23  A    between atoms: _49  and  _52
REMARK   24  A    between atoms: _52  and  _53
REMARK   25  A    between atoms: _53  and  _54
REMARK   26  A    between atoms: _59  and  _61
REMARK   27  A    between atoms: _61  and  _62
REMARK   28  A    between atoms: _61  and  _64
REMARK   29  A    between atoms: _64  and  _65
REMARK   30  A    between atoms: _68  and  _70
REMARK   31  A    between atoms: _70  and  _71
REMARK   32  A    between atoms: _70  and  _73
REMARK   33  A    between atoms: _76  and  _78
REMARK   34  A    between atoms: _78  and  _79
REMARK   35  A    between atoms: _78  and  _81
REMARK   36  A    between atoms: _81  and  _82
REMARK   37  A    between atoms: _82  and  _83
REMARK   38  A    between atoms: _86  and  _88
REMARK   39  A    between atoms: _88  and  _89
REMARK   40  A    between atoms: _88  and  _91
REMARK   41  A    between atoms: _91  and  _92
REMARK   42  A    between atoms: _97  and  _98
REMARK   43  A    between atoms: _100  and  _102
REMARK   44  A    between atoms: _102  and  _103
REMARK   45  A    between atoms: _102  and  _105
REMARK   46  A    between atoms: _105  and  _106
REMARK   47  A    between atoms: _109  and  _111
REMARK   48  A    between atoms: _111  and  _112
REMARK   49  A    between atoms: _114  and  _116
REMARK   50  A    between atoms: _116  and  _117
REMARK   51  A    between atoms: _116  and  _119
REMARK   52  A    between atoms: _119  and  _120
REMARK   53  A    between atoms: _123  and  _125
REMARK   54  A    between atoms: _125  and  _126
REMARK   55  A    between atoms: _129  and  _131
REMARK   56  A    between atoms: _131  and  _132
REMARK   57  A    between atoms: _131  and  _134
REMARK   58  A    between atoms: _134  and  _135
REMARK   59  A    between atoms: _140  and  _142
REMARK   60  A    between atoms: _142  and  _143
REMARK   61  A    between atoms: _142  and  _145
REMARK   62  A    between atoms: _148  and  _150
REMARK   63  A    between atoms: _150  and  _151
REMARK   64  A    between atoms: _150  and  _153
REMARK   65  A    between atoms: _153  and  _154
REMARK   66  A    between atoms: _160  and  _162
REMARK   67  A    between atoms: _162  and  _163
REMARK   68  A    between atoms: _162  and  _165
REMARK   69  A    between atoms: _165  and  _166
REMARK   70  A    between atoms: _166  and  _167
REMARK   71  A    between atoms: _167  and  _168
REMARK   72  A    between atoms: _177  and  _179
REMARK   73  A    between atoms: _179  and  _180
REMARK   74  A    between atoms: _179  and  _182
REMARK   75  A    between atoms: _182  and  _183
REMARK   76  A    between atoms: _186  and  _188
REMARK   77  A    between atoms: _188  and  _189
REMARK   78  A    between atoms: _188  and  _191
REMARK   79  A    between atoms: _191  and  _192
REMARK   80  A    between atoms: _195  and  _197
REMARK   81  A    between atoms: _197  and  _198
REMARK   82  A    between atoms: _201  and  _203
REMARK   83  A    between atoms: _203  and  _204
REMARK   84  A    between atoms: _207  and  _209
REMARK   85  A    between atoms: _209  and  _210
REMARK   86  A    between atoms: _209  and  _212
REMARK   87  A    between atoms: _212  and  _213
REMARK   88  A    between atoms: _213  and  _214
REMARK   89  A    between atoms: _214  and  _215
REMARK   90  A    between atoms: _224  and  _226
REMARK   91  A    between atoms: _226  and  _227
REMARK   92  A    between atoms: _230  and  _232
REMARK   93  A    between atoms: _232  and  _233
REMARK   94  A    between atoms: _232  and  _235
REMARK   95  A    between atoms: _235  and  _236
REMARK   96  A    between atoms: _241  and  _242
REMARK   97  A    between atoms: _244  and  _246
REMARK   98  A    between atoms: _246  and  _247
REMARK   99  A    between atoms: _246  and  _249
REMARK  100  A    between atoms: _249  and  _250
REMARK  101  A    between atoms: _253  and  _255
REMARK  102  A    between atoms: _255  and  _256
REMARK  103  A    between atoms: _255  and  _258
REMARK  104  A    between atoms: _258  and  _259
REMARK  105  A    between atoms: _263  and  _264
REMARK  106  A    between atoms: _270  and  _271
REMARK  107  A    between atoms: _276  and  _278
REMARK  108  A    between atoms: _278  and  _279
REMARK  109  A    between atoms: _278  and  _281
REMARK  110  A    between atoms: _281  and  _282
REMARK  111  A    between atoms: _287  and  _288
REMARK  112  A    between atoms: _290  and  _292
REMARK  113  A    between atoms: _292  and  _293
REMARK  114  A    between atoms: _292  and  _295
REMARK  115  A    between atoms: _295  and  _296
REMARK  116  A    between atoms: _299  and  _301
REMARK  117  A    between atoms: _301  and  _302
REMARK  118  A    between atoms: _305  and  _307
REMARK  119  A    between atoms: _307  and  _308
REMARK  120  A    between atoms: _307  and  _310
REMARK  121  A    between atoms: _310  and  _311
REMARK                            x       y       z     vdW  Elec       q    Type
REMARK                         _______ _______ _______ _____ _____    ______ ____
ROOT
ATOM      1  CA  TYR A   3      13.665 -17.452  -9.139  0.00  0.00    +0.153 C 
ENDROOT
BRANCH   1   4
ATOM      2  C   PRO A   2      11.690 -18.327 -10.268  0.00  0.00    +0.241 C 
ATOM      3  O   PRO A   2      11.654 -19.330  -9.556  0.00  0.00    -0.273 OA
ATOM      4  N   TYR A   3      12.615 -17.374 -10.151  0.00  0.00    -0.297 N 
ATOM      5  H   TYR A   3      12.588 -16.557 -10.794  0.00  0.00    +0.150 HD
BRANCH   2  11
ATOM      6  C   PRO A   1      10.881 -19.942 -13.062  0.00  0.00    +0.242 C 
ATOM      7  N   PRO A   2      10.290 -19.444 -11.949  0.00  0.00    -0.272 N 
ATOM      8  CD  PRO A   2       9.135 -20.059 -11.260  0.00  0.00    +0.094 C 
ATOM      9  CG  PRO A   2       8.666 -18.990 -10.297  0.00  0.00    +0.024 C 
ATOM     10  CB  PRO A   2       9.318 -17.704 -10.725  0.00  0.00    +0.031 C 
ATOM     11  CA  PRO A   2      10.636 -18.146 -11.358  0.00  0.00    +0.152 C 
ATOM     12  O   PRO A   1      11.697 -19.310 -13.729  0.00  0.00    -0.273 OA
BRANCH   6  14
ATOM     13  N   PRO A   1      10.593 -21.632 -14.937  0.00  0.00    -0.210 NA
ATOM     14  CA  PRO A   1      10.498 -21.367 -13.490  0.00  0.00    +0.149 C 
ATOM     15  CB  PRO A   1      11.455 -22.394 -12.866  0.00  0.00    +0.028 C 
ATOM     16  CG  PRO A   1      12.091 -23.137 -14.014  0.00  0.00    +0.021 C 
ATOM     17  CD  PRO A   1      11.272 -22.908 -15.220  0.00  0.00    +0.089 C 
ENDBRANCH   6  14
ENDBRANCH   2  11
ENDBRANCH   1   4
BRANCH   1  18
ATOM     18  C   TYR A   3      13.754 -16.126  -8.375  0.00  0.00    +0.241 C 
ATOM     19  N   ASP A   4      12.699 -15.822  -7.610  0.00  0.00    -0.297 N 
ATOM     20  H   ASP A   4      11.873 -16.453  -7.638  0.00  0.00    +0.150 HD
ATOM     21  O   TYR A   3      14.744 -15.401  -8.499  0.00  0.00    -0.273 OA
BRANCH  19  22
ATOM     22  CA  ASP A   4      12.645 -14.642  -6.730  0.00  0.00    +0.160 C 
BRANCH  22  23
ATOM     23  C   ASP A   4      13.714 -14.826  -5.650  0.00  0.00    +0.241 C 
ATOM     24  O   ASP A   4      13.746 -15.857  -4.993  0.00  0.00    -0.273 OA
ATOM     25  N   ALA A   5      14.564 -13.822  -5.460  0.00  0.00    -0.298 N 
ATOM     26  H   ALA A   5      14.508 -12.989  -6.080  0.00  0.00    +0.150 HD
BRANCH  25  27
ATOM     27  CA  ALA A   5      15.575 -13.854  -4.405  0.00  0.00    +0.137 C 
ATOM     28  CB  ALA A   5      16.752 -12.939  -4.757  0.00  0.00    +0.030 C 
BRANCH  27  29
ATOM     29  C   ALA A   5      14.983 -13.498  -3.042  0.00  0.00    +0.227 C 
ATOM     30  O   ALA A   5      14.374 -12.422  -2.857  0.00  0.00    -0.286 OA
ENDBRANCH  27  29
ENDBRANCH  25  27
ENDBRANCH  22  23
BRANCH  22  31
ATOM     31  CB  ASP A   4      11.293 -14.570  -6.002  0.00  0.00    +0.143 C 
BRANCH  31  32
ATOM     32  CG  ASP A   4      10.182 -13.911  -6.817  0.00  0.00    +0.367 C 
ATOM     33  OD2 ASP A   4       9.049 -14.417  -6.743  0.00  0.00    -0.246 OA
ATOM     34  OD1 ASP A   4      10.400 -12.864  -7.463  0.00  0.00    -0.246 OA
ENDBRANCH  31  32
ENDBRANCH  22  31
ENDBRANCH  19  22
ENDBRANCH   1  18
BRANCH   1  35
ATOM     35  CB  TYR A   3      15.014 -17.817  -9.793  0.00  0.00    +0.055 C 
BRANCH  35  36
ATOM     36  CG  TYR A   3      15.044 -19.206 -10.412  0.00  0.00    -0.020 A 
ATOM     37  CD2 TYR A   3      15.470 -20.305  -9.676  0.00  0.00    -0.001 A 
ATOM     38  CE2 TYR A   3      15.490 -21.596 -10.241  0.00  0.00    +0.036 A 
ATOM     39  CZ  TYR A   3      15.104 -21.761 -11.573  0.00  0.00    +0.134 A 
ATOM     40  CE1 TYR A   3      14.679 -20.679 -12.319  0.00  0.00    +0.036 A 
ATOM     41  CD1 TYR A   3      14.659 -19.407 -11.746  0.00  0.00    -0.001 A 
BRANCH  39  42
ATOM     42  OH  TYR A   3      15.113 -23.015 -12.156  0.00  0.00    -0.506 OA
ATOM     43  HH  TYR A   3      15.711 -23.006 -12.945  0.00  0.00    +0.292 HD
ENDBRANCH  39  42
ENDBRANCH  35  36
ENDBRANCH   1  35
TORSDOF 13
REMARK  Name = ../refined-set-2016/3mam/3mam_pocket.pdb
REMARK  121 active torsions:
REMARK  status: ('A' for Active; 'I' for Inactive)
REMARK    1  A    between atoms: _1  and  _3
REMARK    2  A    between atoms: _3  and  _4
REMARK    3  A    between atoms: _3  and  _6
REMARK    4  A    between atoms: _6  and  _7
REMARK    5  A    between atoms: _7  and  _8
REMARK    6  A    between atoms: _8  and  _9
REMARK    7  A    between atoms: _9  and  _10
REMARK    8  A    between atoms: _14  and  _16
REMARK    9  A    between atoms: _16  and  _17
REMARK   10  A    between atoms: _16  and  _19
REMARK   11  A    between atoms: _19  and  _20
REMARK   12  A    between atoms: _26  and  _28
REMARK   13  A    between atoms: _28  and  _29
REMARK   14  A    between atoms: _28  and  _31
REMARK   15  A    between atoms: _31  and  _32
REMARK   16  A    between atoms: _37  and  _39
REMARK   17  A    between atoms: _39  and  _40
REMARK   18  A    between atoms: _39  and  _42
REMARK   19  A    between atoms: _42  and  _43
REMARK   20  A    between atoms: _43  and  _44
REMARK   21  A    between atoms: _47  and  _49
REMARK   22  A    between atoms: _49  and  _50
REMARK   23  A    between atoms: _49  and  _52
REMARK   24  A    between atoms: _52  and  _53
REMARK   25  A    between atoms: _53  and  _54
REMARK   26  A    between atoms: _59  and  _61
REMARK   27  A    between atoms: _61  and  _62
REMARK   28  A    between atoms: _61  and  _64
REMARK   29  A    between atoms: _64  and  _65
REMARK   30  A    between atoms: _68  and  _70
REMARK   31  A    between atoms: _70  and  _71
REMARK   32  A    between atoms: _70  and  _73
REMARK   33  A    between atoms: _76  and  _78
REMARK   34  A    between atoms: _78  and  _79
REMARK   35  A    between atoms: _78  and  _81
REMARK   36  A    between atoms: _81  and  _82
REMARK   37  A    between atoms: _82  and  _83
REMARK   38  A    between atoms: _86  and  _88
REMARK   39  A    between atoms: _88  and  _89
REMARK   40  A    between atoms: _88  and  _91
REMARK   41  A    between atoms: _91  and  _92
REMARK   42  A    between atoms: _97  and  _98
REMARK   43  A    between atoms: _100  and  _102
REMARK   44  A    between atoms: _102  and  _103
REMARK   45  A    between atoms: _102  and  _105
REMARK   46  A    between atoms: _105  and  _106
REMARK   47  A    between atoms: _109  and  _111
REMARK   48  A    between atoms: _111  and  _112
REMARK   49  A    between atoms: _114  and  _116
REMARK   50  A    between atoms: _116  and  _117
REMARK   51  A    between atoms: _116  and  _119
REMARK   52  A    between atoms: _119  and  _120
REMARK   53  A    between atoms: _123  and  _125
REMARK   54  A    between atoms: _125  and  _126
REMARK   55  A    between atoms: _129  and  _131
REMARK   56  A    between atoms: _131  and  _132
REMARK   57  A    between atoms: _131  and  _134
REMARK   58  A    between atoms: _134  and  _135
REMARK   59  A    between atoms: _140  and  _142
REMARK   60  A    between atoms: _142  and  _143
REMARK   61  A    between atoms: _142  and  _145
REMARK   62  A    between atoms: _148  and  _150
REMARK   63  A    between atoms: _150  and  _151
REMARK   64  A    between atoms: _150  and  _153
REMARK   65  A    between atoms: _153  and  _154
REMARK   66  A    between atoms: _160  and  _162
REMARK   67  A    between atoms: _162  and  _163
REMARK   68  A    between atoms: _162  and  _165
REMARK   69  A    between atoms: _165  and  _166
REMARK   70  A    between atoms: _166  and  _167
REMARK   71  A    between atoms: _167  and  _168
REMARK   72  A    between atoms: _177  and  _179
REMARK   73  A    between atoms: _179  and  _180
REMARK   74  A    between atoms: _179  and  _182
REMARK   75  A    between atoms: _182  and  _183
REMARK   76  A    between atoms: _186  and  _188
REMARK   77  A    between atoms: _188  and  _189
REMARK   78  A    between atoms: _188  and  _191
REMARK   79  A    between atoms: _191  and  _192
REMARK   80  A    between atoms: _195  and  _197
REMARK   81  A    between atoms: _197  and  _198
REMARK   82  A    between atoms: _201  and  _203
REMARK   83  A    between atoms: _203  and  _204
REMARK   84  A    between atoms: _207  and  _209
REMARK   85  A    between atoms: _209  and  _210
REMARK   86  A    between atoms: _209  and  _212
REMARK   87  A    between atoms: _212  and  _213
REMARK   88  A    between atoms: _213  and  _214
REMARK   89  A    between atoms: _214  and  _215
REMARK   90  A    between atoms: _224  and  _226
REMARK   91  A    between atoms: _226  and  _227
REMARK   92  A    between atoms: _230  and  _232
REMARK   93  A    between atoms: _232  and  _233
REMARK   94  A    between atoms: _232  and  _235
REMARK   95  A    between atoms: _235  and  _236
REMARK   96  A    between atoms: _241  and  _242
REMARK   97  A    between atoms: _244  and  _246
REMARK   98  A    between atoms: _246  and  _247
REMARK   99  A    between atoms: _246  and  _249
REMARK  100  A    between atoms: _249  and  _250
REMARK  101  A    between atoms: _253  and  _255
REMARK  102  A    between atoms: _255  and  _256
REMARK  103  A    between atoms: _255  and  _258
REMARK  104  A    between atoms: _258  and  _259
REMARK  105  A    between atoms: _263  and  _264
REMARK  106  A    between atoms: _270  and  _271
REMARK  107  A    between atoms: _276  and  _278
REMARK  108  A    between atoms: _278  and  _279
REMARK  109  A    between atoms: _278  and  _281
REMARK  110  A    between atoms: _281  and  _282
REMARK  111  A    between atoms: _287  and  _288
REMARK  112  A    between atoms: _290  and  _292
REMARK  113  A    between atoms: _292  and  _293
REMARK  114  A    between atoms: _292  and  _295
REMARK  115  A    between atoms: _295  and  _296
REMARK  116  A    between atoms: _299  and  _301
REMARK  117  A    between atoms: _301  and  _302
REMARK  118  A    between atoms: _305  and  _307
REMARK  119  A    between atoms: _307  and  _308
REMARK  120  A    between atoms: _307  and  _310
REMARK  121  A    between atoms: _310  and  _311
REMARK                            x       y       z     vdW  Elec       q    Type
REMARK                         _______ _______ _______ _____ _____    ______ ____
ROOT
ATOM      1  CB  ASN A   1      26.083  -8.929 -11.422  0.00  0.00    +0.110 C 
ENDROOT
BRANCH   1   2
ATOM      2  CG  ASN A   1      25.377  -9.771 -10.359  0.00  0.00    +0.221 C 
ATOM      3  OD1 ASN A   1      25.863  -9.924  -9.240  0.00  0.00    -0.275 OA
ATOM      4  ND2 ASN A   1      24.215 -10.306 -10.710  0.00  0.00    -0.329 N 
ATOM      5 HD21 ASN A   1      23.679 -10.880 -10.028  0.00  0.00    +0.145 HD
ATOM      6 HD22 ASN A   1      23.840 -10.152 -11.668  0.00  0.00    +0.145 HD
ENDBRANCH   1   2
BRANCH   1   7
ATOM      7  CA  ASN A   1      26.989  -7.847 -10.817  0.00  0.00    +0.142 C 
BRANCH   7   8
ATOM      8  N   ASN A   1      26.197  -6.747 -10.255  0.00  0.00    -0.239 NA
ATOM      9  H   ASN A   1      25.165  -6.750 -10.386  0.00  0.00    +0.142 HD
ENDBRANCH   7   8
BRANCH   7  10
ATOM     10  C   ASN A   1      28.005  -7.360 -11.854  0.00  0.00    +0.225 C 
ATOM     11  O   ASN A   1      29.127  -7.870 -11.930  0.00  0.00    -0.287 OA
ENDBRANCH   7  10
ENDBRANCH   1   7
TORSDOF 4
REMARK  Name = ../refined-set-2016/3mam/3mam_pocket.pdb
REMARK  121 active torsions:
REMARK  status: ('A' for Active; 'I' for Inactive)
REMARK    1  A    between atoms: _1  and  _3
REMARK    2  A    between atoms: _3  and  _4
REMARK    3  A    between atoms: _3  and  _6
REMARK    4  A    between atoms: _6  and  _7
REMARK    5  A    between atoms: _7  and  _8
REMARK    6  A    between atoms: _8  and  _9
REMARK    7  A    between atoms: _9  and  _10
REMARK    8  A    between atoms: _14  and  _16
REMARK    9  A    between atoms: _16  and  _17
REMARK   10  A    between atoms: _16  and  _19
REMARK   11  A    between atoms: _19  and  _20
REMARK   12  A    between atoms: _26  and  _28
REMARK   13  A    between atoms: _28  and  _29
REMARK   14  A    between atoms: _28  and  _31
REMARK   15  A    between atoms: _31  and  _32
REMARK   16  A    between atoms: _37  and  _39
REMARK   17  A    between atoms: _39  and  _40
REMARK   18  A    between atoms: _39  and  _42
REMARK   19  A    between atoms: _42  and  _43
REMARK   20  A    between atoms: _43  and  _44
REMARK   21  A    between atoms: _47  and  _49
REMARK   22  A    between atoms: _49  and  _50
REMARK   23  A    between atoms: _49  and  _52
REMARK   24  A    between atoms: _52  and  _53
REMARK   25  A    between atoms: _53  and  _54
REMARK   26  A    between atoms: _59  and  _61
REMARK   27  A    between atoms: _61  and  _62
REMARK   28  A    between atoms: _61  and  _64
REMARK   29  A    between atoms: _64  and  _65
REMARK   30  A    between atoms: _68  and  _70
REMARK   31  A    between atoms: _70  and  _71
REMARK   32  A    between atoms: _70  and  _73
REMARK   33  A    between atoms: _76  and  _78
REMARK   34  A    between atoms: _78  and  _79
REMARK   35  A    between atoms: _78  and  _81
REMARK   36  A    between atoms: _81  and  _82
REMARK   37  A    between atoms: _82  and  _83
REMARK   38  A    between atoms: _86  and  _88
REMARK   39  A    between atoms: _88  and  _89
REMARK   40  A    between atoms: _88  and  _91
REMARK   41  A    between atoms: _91  and  _92
REMARK   42  A    between atoms: _97  and  _98
REMARK   43  A    between atoms: _100  and  _102
REMARK   44  A    between atoms: _102  and  _103
REMARK   45  A    between atoms: _102  and  _105
REMARK   46  A    between atoms: _105  and  _106
REMARK   47  A    between atoms: _109  and  _111
REMARK   48  A    between atoms: _111  and  _112
REMARK   49  A    between atoms: _114  and  _116
REMARK   50  A    between atoms: _116  and  _117
REMARK   51  A    between atoms: _116  and  _119
REMARK   52  A    between atoms: _119  and  _120
REMARK   53  A    between atoms: _123  and  _125
REMARK   54  A    between atoms: _125  and  _126
REMARK   55  A    between atoms: _129  and  _131
REMARK   56  A    between atoms: _131  and  _132
REMARK   57  A    between atoms: _131  and  _134
REMARK   58  A    between atoms: _134  and  _135
REMARK   59  A    between atoms: _140  and  _142
REMARK   60  A    between atoms: _142  and  _143
REMARK   61  A    between atoms: _142  and  _145
REMARK   62  A    between atoms: _148  and  _150
REMARK   63  A    between atoms: _150  and  _151
REMARK   64  A    between atoms: _150  and  _153
REMARK   65  A    between atoms: _153  and  _154
REMARK   66  A    between atoms: _160  and  _162
REMARK   67  A    between atoms: _162  and  _163
REMARK   68  A    between atoms: _162  and  _165
REMARK   69  A    between atoms: _165  and  _166
REMARK   70  A    between atoms: _166  and  _167
REMARK   71  A    between atoms: _167  and  _168
REMARK   72  A    between atoms: _177  and  _179
REMARK   73  A    between atoms: _179  and  _180
REMARK   74  A    between atoms: _179  and  _182
REMARK   75  A    between atoms: _182  and  _183
REMARK   76  A    between atoms: _186  and  _188
REMARK   77  A    between atoms: _188  and  _189
REMARK   78  A    between atoms: _188  and  _191
REMARK   79  A    between atoms: _191  and  _192
REMARK   80  A    between atoms: _195  and  _197
REMARK   81  A    between atoms: _197  and  _198
REMARK   82  A    between atoms: _201  and  _203
REMARK   83  A    between atoms: _203  and  _204
REMARK   84  A    between atoms: _207  and  _209
REMARK   85  A    between atoms: _209  and  _210
REMARK   86  A    between atoms: _209  and  _212
REMARK   87  A    between atoms: _212  and  _213
REMARK   88  A    between atoms: _213  and  _214
REMARK   89  A    between atoms: _214  and  _215
REMARK   90  A    between atoms: _224  and  _226
REMARK   91  A    between atoms: _226  and  _227
REMARK   92  A    between atoms: _230  and  _232
REMARK   93  A    between atoms: _232  and  _233
REMARK   94  A    between atoms: _232  and  _235
REMARK   95  A    between atoms: _235  and  _236
REMARK   96  A    between atoms: _241  and  _242
REMARK   97  A    between atoms: _244  and  _246
REMARK   98  A    between atoms: _246  and  _247
REMARK   99  A    between atoms: _246  and  _249
REMARK  100  A    between atoms: _249  and  _250
REMARK  101  A    between atoms: _253  and  _255
REMARK  102  A    between atoms: _255  and  _256
REMARK  103  A    between atoms: _255  and  _258
REMARK  104  A    between atoms: _258  and  _259
REMARK  105  A    between atoms: _263  and  _264
REMARK  106  A    between atoms: _270  and  _271
REMARK  107  A    between atoms: _276  and  _278
REMARK  108  A    between atoms: _278  and  _279
REMARK  109  A    between atoms: _278  and  _281
REMARK  110  A    between atoms: _281  and  _282
REMARK  111  A    between atoms: _287  and  _288
REMARK  112  A    between atoms: _290  and  _292
REMARK  113  A    between atoms: _292  and  _293
REMARK  114  A    between atoms: _292  and  _295
REMARK  115  A    between atoms: _295  and  _296
REMARK  116  A    between atoms: _299  and  _301
REMARK  117  A    between atoms: _301  and  _302
REMARK  118  A    between atoms: _305  and  _307
REMARK  119  A    between atoms: _307  and  _308
REMARK  120  A    between atoms: _307  and  _310
REMARK  121  A    between atoms: _310  and  _311
REMARK                            x       y       z     vdW  Elec       q    Type
REMARK                         _______ _______ _______ _____ _____    ______ ____
ROOT
ATOM      1  O   HOH     1      21.606 -20.608  -6.942  0.00  0.00    +0.000 OA
ENDROOT
TORSDOF 0
REMARK  Name = ../refined-set-2016/3mam/3mam_pocket.pdb
REMARK  121 active torsions:
REMARK  status: ('A' for Active; 'I' for Inactive)
REMARK    1  A    between atoms: _1  and  _3
REMARK    2  A    between atoms: _3  and  _4
REMARK    3  A    between atoms: _3  and  _6
REMARK    4  A    between atoms: _6  and  _7
REMARK    5  A    between atoms: _7  and  _8
REMARK    6  A    between atoms: _8  and  _9
REMARK    7  A    between atoms: _9  and  _10
REMARK    8  A    between atoms: _14  and  _16
REMARK    9  A    between atoms: _16  and  _17
REMARK   10  A    between atoms: _16  and  _19
REMARK   11  A    between atoms: _19  and  _20
REMARK   12  A    between atoms: _26  and  _28
REMARK   13  A    between atoms: _28  and  _29
REMARK   14  A    between atoms: _28  and  _31
REMARK   15  A    between atoms: _31  and  _32
REMARK   16  A    between atoms: _37  and  _39
REMARK   17  A    between atoms: _39  and  _40
REMARK   18  A    between atoms: _39  and  _42
REMARK   19  A    between atoms: _42  and  _43
REMARK   20  A    between atoms: _43  and  _44
REMARK   21  A    between atoms: _47  and  _49
REMARK   22  A    between atoms: _49  and  _50
REMARK   23  A    between atoms: _49  and  _52
REMARK   24  A    between atoms: _52  and  _53
REMARK   25  A    between atoms: _53  and  _54
REMARK   26  A    between atoms: _59  and  _61
REMARK   27  A    between atoms: _61  and  _62
REMARK   28  A    between atoms: _61  and  _64
REMARK   29  A    between atoms: _64  and  _65
REMARK   30  A    between atoms: _68  and  _70
REMARK   31  A    between atoms: _70  and  _71
REMARK   32  A    between atoms: _70  and  _73
REMARK   33  A    between atoms: _76  and  _78
REMARK   34  A    between atoms: _78  and  _79
REMARK   35  A    between atoms: _78  and  _81
REMARK   36  A    between atoms: _81  and  _82
REMARK   37  A    between atoms: _82  and  _83
REMARK   38  A    between atoms: _86  and  _88
REMARK   39  A    between atoms: _88  and  _89
REMARK   40  A    between atoms: _88  and  _91
REMARK   41  A    between atoms: _91  and  _92
REMARK   42  A    between atoms: _97  and  _98
REMARK   43  A    between atoms: _100  and  _102
REMARK   44  A    between atoms: _102  and  _103
REMARK   45  A    between atoms: _102  and  _105
REMARK   46  A    between atoms: _105  and  _106
REMARK   47  A    between atoms: _109  and  _111
REMARK   48  A    between atoms: _111  and  _112
REMARK   49  A    between atoms: _114  and  _116
REMARK   50  A    between atoms: _116  and  _117
REMARK   51  A    between atoms: _116  and  _119
REMARK   52  A    between atoms: _119  and  _120
REMARK   53  A    between atoms: _123  and  _125
REMARK   54  A    between atoms: _125  and  _126
REMARK   55  A    between atoms: _129  and  _131
REMARK   56  A    between atoms: _131  and  _132
REMARK   57  A    between atoms: _131  and  _134
REMARK   58  A    between atoms: _134  and  _135
REMARK   59  A    between atoms: _140  and  _142
REMARK   60  A    between atoms: _142  and  _143
REMARK   61  A    between atoms: _142  and  _145
REMARK   62  A    between atoms: _148  and  _150
REMARK   63  A    between atoms: _150  and  _151
REMARK   64  A    between atoms: _150  and  _153
REMARK   65  A    between atoms: _153  and  _154
REMARK   66  A    between atoms: _160  and  _162
REMARK   67  A    between atoms: _162  and  _163
REMARK   68  A    between atoms: _162  and  _165
REMARK   69  A    between atoms: _165  and  _166
REMARK   70  A    between atoms: _166  and  _167
REMARK   71  A    between atoms: _167  and  _168
REMARK   72  A    between atoms: _177  and  _179
REMARK   73  A    between atoms: _179  and  _180
REMARK   74  A    between atoms: _179  and  _182
REMARK   75  A    between atoms: _182  and  _183
REMARK   76  A    between atoms: _186  and  _188
REMARK   77  A    between atoms: _188  and  _189
REMARK   78  A    between atoms: _188  and  _191
REMARK   79  A    between atoms: _191  and  _192
REMARK   80  A    between atoms: _195  and  _197
REMARK   81  A    between atoms: _197  and  _198
REMARK   82  A    between atoms: _201  and  _203
REMARK   83  A    between atoms: _203  and  _204
REMARK   84  A    between atoms: _207  and  _209
REMARK   85  A    between atoms: _209  and  _210
REMARK   86  A    between atoms: _209  and  _212
REMARK   87  A    between atoms: _212  and  _213
REMARK   88  A    between atoms: _213  and  _214
REMARK   89  A    between atoms: _214  and  _215
REMARK   90  A    between atoms: _224  and  _226
REMARK   91  A    between atoms: _226  and  _227
REMARK   92  A    between atoms: _230  and  _232
REMARK   93  A    between atoms: _232  and  _233
REMARK   94  A    between atoms: _232  and  _235
REMARK   95  A    between atoms: _235  and  _236
REMARK   96  A    between atoms: _241  and  _242
REMARK   97  A    between atoms: _244  and  _246
REMARK   98  A    between atoms: _246  and  _247
REMARK   99  A    between atoms: _246  and  _249
REMARK  100  A    between atoms: _249  and  _250
REMARK  101  A    between atoms: _253  and  _255
REMARK  102  A    between atoms: _255  and  _256
REMARK  103  A    between atoms: _255  and  _258
REMARK  104  A    between atoms: _258  and  _259
REMARK  105  A    between atoms: _263  and  _264
REMARK  106  A    between atoms: _270  and  _271
REMARK  107  A    between atoms: _276  and  _278
REMARK  108  A    between atoms: _278  and  _279
REMARK  109  A    between atoms: _278  and  _281
REMARK  110  A    between atoms: _281  and  _282
REMARK  111  A    between atoms: _287  and  _288
REMARK  112  A    between atoms: _290  and  _292
REMARK  113  A    between atoms: _292  and  _293
REMARK  114  A    between atoms: _292  and  _295
REMARK  115  A    between atoms: _295  and  _296
REMARK  116  A    between atoms: _299  and  _301
REMARK  117  A    between atoms: _301  and  _302
REMARK  118  A    between atoms: _305  and  _307
REMARK  119  A    between atoms: _307  and  _308
REMARK  120  A    between atoms: _307  and  _310
REMARK  121  A    between atoms: _310  and  _311
REMARK                            x       y       z     vdW  Elec       q    Type
REMARK                         _______ _______ _______ _____ _____    ______ ____
ROOT
ATOM      1  O   HOH     1      17.508 -27.173 -12.222  0.00  0.00    +0.000 OA
ENDROOT
TORSDOF 0
REMARK  Name = ../refined-set-2016/3mam/3mam_pocket.pdb
REMARK  121 active torsions:
REMARK  status: ('A' for Active; 'I' for Inactive)
REMARK    1  A    between atoms: _1  and  _3
REMARK    2  A    between atoms: _3  and  _4
REMARK    3  A    between atoms: _3  and  _6
REMARK    4  A    between atoms: _6  and  _7
REMARK    5  A    between atoms: _7  and  _8
REMARK    6  A    between atoms: _8  and  _9
REMARK    7  A    between atoms: _9  and  _10
REMARK    8  A    between atoms: _14  and  _16
REMARK    9  A    between atoms: _16  and  _17
REMARK   10  A    between atoms: _16  and  _19
REMARK   11  A    between atoms: _19  and  _20
REMARK   12  A    between atoms: _26  and  _28
REMARK   13  A    between atoms: _28  and  _29
REMARK   14  A    between atoms: _28  and  _31
REMARK   15  A    between atoms: _31  and  _32
REMARK   16  A    between atoms: _37  and  _39
REMARK   17  A    between atoms: _39  and  _40
REMARK   18  A    between atoms: _39  and  _42
REMARK   19  A    between atoms: _42  and  _43
REMARK   20  A    between atoms: _43  and  _44
REMARK   21  A    between atoms: _47  and  _49
REMARK   22  A    between atoms: _49  and  _50
REMARK   23  A    between atoms: _49  and  _52
REMARK   24  A    between atoms: _52  and  _53
REMARK   25  A    between atoms: _53  and  _54
REMARK   26  A    between atoms: _59  and  _61
REMARK   27  A    between atoms: _61  and  _62
REMARK   28  A    between atoms: _61  and  _64
REMARK   29  A    between atoms: _64  and  _65
REMARK   30  A    between atoms: _68  and  _70
REMARK   31  A    between atoms: _70  and  _71
REMARK   32  A    between atoms: _70  and  _73
REMARK   33  A    between atoms: _76  and  _78
REMARK   34  A    between atoms: _78  and  _79
REMARK   35  A    between atoms: _78  and  _81
REMARK   36  A    between atoms: _81  and  _82
REMARK   37  A    between atoms: _82  and  _83
REMARK   38  A    between atoms: _86  and  _88
REMARK   39  A    between atoms: _88  and  _89
REMARK   40  A    between atoms: _88  and  _91
REMARK   41  A    between atoms: _91  and  _92
REMARK   42  A    between atoms: _97  and  _98
REMARK   43  A    between atoms: _100  and  _102
REMARK   44  A    between atoms: _102  and  _103
REMARK   45  A    between atoms: _102  and  _105
REMARK   46  A    between atoms: _105  and  _106
REMARK   47  A    between atoms: _109  and  _111
REMARK   48  A    between atoms: _111  and  _112
REMARK   49  A    between atoms: _114  and  _116
REMARK   50  A    between atoms: _116  and  _117
REMARK   51  A    between atoms: _116  and  _119
REMARK   52  A    between atoms: _119  and  _120
REMARK   53  A    between atoms: _123  and  _125
REMARK   54  A    between atoms: _125  and  _126
REMARK   55  A    between atoms: _129  and  _131
REMARK   56  A    between atoms: _131  and  _132
REMARK   57  A    between atoms: _131  and  _134
REMARK   58  A    between atoms: _134  and  _135
REMARK   59  A    between atoms: _140  and  _142
REMARK   60  A    between atoms: _142  and  _143
REMARK   61  A    between atoms: _142  and  _145
REMARK   62  A    between atoms: _148  and  _150
REMARK   63  A    between atoms: _150  and  _151
REMARK   64  A    between atoms: _150  and  _153
REMARK   65  A    between atoms: _153  and  _154
REMARK   66  A    between atoms: _160  and  _162
REMARK   67  A    between atoms: _162  and  _163
REMARK   68  A    between atoms: _162  and  _165
REMARK   69  A    between atoms: _165  and  _166
REMARK   70  A    between atoms: _166  and  _167
REMARK   71  A    between atoms: _167  and  _168
REMARK   72  A    between atoms: _177  and  _179
REMARK   73  A    between atoms: _179  and  _180
REMARK   74  A    between atoms: _179  and  _182
REMARK   75  A    between atoms: _182  and  _183
REMARK   76  A    between atoms: _186  and  _188
REMARK   77  A    between atoms: _188  and  _189
REMARK   78  A    between atoms: _188  and  _191
REMARK   79  A    between atoms: _191  and  _192
REMARK   80  A    between atoms: _195  and  _197
REMARK   81  A    between atoms: _197  and  _198
REMARK   82  A    between atoms: _201  and  _203
REMARK   83  A    between atoms: _203  and  _204
REMARK   84  A    between atoms: _207  and  _209
REMARK   85  A    between atoms: _209  and  _210
REMARK   86  A    between atoms: _209  and  _212
REMARK   87  A    between atoms: _212  and  _213
REMARK   88  A    between atoms: _213  and  _214
REMARK   89  A    between atoms: _214  and  _215
REMARK   90  A    between atoms: _224  and  _226
REMARK   91  A    between atoms: _226  and  _227
REMARK   92  A    between atoms: _230  and  _232
REMARK   93  A    between atoms: _232  and  _233
REMARK   94  A    between atoms: _232  and  _235
REMARK   95  A    between atoms: _235  and  _236
REMARK   96  A    between atoms: _241  and  _242
REMARK   97  A    between atoms: _244  and  _246
REMARK   98  A    between atoms: _246  and  _247
REMARK   99  A    between atoms: _246  and  _249
REMARK  100  A    between atoms: _249  and  _250
REMARK  101  A    between atoms: _253  and  _255
REMARK  102  A    between atoms: _255  and  _256
REMARK  103  A    between atoms: _255  and  _258
REMARK  104  A    between atoms: _258  and  _259
REMARK  105  A    between atoms: _263  and  _264
REMARK  106  A    between atoms: _270  and  _271
REMARK  107  A    between atoms: _276  and  _278
REMARK  108  A    between atoms: _278  and  _279
REMARK  109  A    between atoms: _278  and  _281
REMARK  110  A    between atoms: _281  and  _282
REMARK  111  A    between atoms: _287  and  _288
REMARK  112  A    between atoms: _290  and  _292
REMARK  113  A    between atoms: _292  and  _293
REMARK  114  A    between atoms: _292  and  _295
REMARK  115  A    between atoms: _295  and  _296
REMARK  116  A    between atoms: _299  and  _301
REMARK  117  A    between atoms: _301  and  _302
REMARK  118  A    between atoms: _305  and  _307
REMARK  119  A    between atoms: _307  and  _308
REMARK  120  A    between atoms: _307  and  _310
REMARK  121  A    between atoms: _310  and  _311
REMARK                            x       y       z     vdW  Elec       q    Type
REMARK                         _______ _______ _______ _____ _____    ______ ____
ROOT
ATOM      1  O   HOH     1      13.850 -19.728 -15.474  0.00  0.00    +0.000 OA
ENDROOT
TORSDOF 0
REMARK  Name = ../refined-set-2016/3mam/3mam_pocket.pdb
REMARK  121 active torsions:
REMARK  status: ('A' for Active; 'I' for Inactive)
REMARK    1  A    between atoms: _1  and  _3
REMARK    2  A    between atoms: _3  and  _4
REMARK    3  A    between atoms: _3  and  _6
REMARK    4  A    between atoms: _6  and  _7
REMARK    5  A    between atoms: _7  and  _8
REMARK    6  A    between atoms: _8  and  _9
REMARK    7  A    between atoms: _9  and  _10
REMARK    8  A    between atoms: _14  and  _16
REMARK    9  A    between atoms: _16  and  _17
REMARK   10  A    between atoms: _16  and  _19
REMARK   11  A    between atoms: _19  and  _20
REMARK   12  A    between atoms: _26  and  _28
REMARK   13  A    between atoms: _28  and  _29
REMARK   14  A    between atoms: _28  and  _31
REMARK   15  A    between atoms: _31  and  _32
REMARK   16  A    between atoms: _37  and  _39
REMARK   17  A    between atoms: _39  and  _40
REMARK   18  A    between atoms: _39  and  _42
REMARK   19  A    between atoms: _42  and  _43
REMARK   20  A    between atoms: _43  and  _44
REMARK   21  A    between atoms: _47  and  _49
REMARK   22  A    between atoms: _49  and  _50
REMARK   23  A    between atoms: _49  and  _52
REMARK   24  A    between atoms: _52  and  _53
REMARK   25  A    between atoms: _53  and  _54
REMARK   26  A    between atoms: _59  and  _61
REMARK   27  A    between atoms: _61  and  _62
REMARK   28  A    between atoms: _61  and  _64
REMARK   29  A    between atoms: _64  and  _65
REMARK   30  A    between atoms: _68  and  _70
REMARK   31  A    between atoms: _70  and  _71
REMARK   32  A    between atoms: _70  and  _73
REMARK   33  A    between atoms: _76  and  _78
REMARK   34  A    between atoms: _78  and  _79
REMARK   35  A    between atoms: _78  and  _81
REMARK   36  A    between atoms: _81  and  _82
REMARK   37  A    between atoms: _82  and  _83
REMARK   38  A    between atoms: _86  and  _88
REMARK   39  A    between atoms: _88  and  _89
REMARK   40  A    between atoms: _88  and  _91
REMARK   41  A    between atoms: _91  and  _92
REMARK   42  A    between atoms: _97  and  _98
REMARK   43  A    between atoms: _100  and  _102
REMARK   44  A    between atoms: _102  and  _103
REMARK   45  A    between atoms: _102  and  _105
REMARK   46  A    between atoms: _105  and  _106
REMARK   47  A    between atoms: _109  and  _111
REMARK   48  A    between atoms: _111  and  _112
REMARK   49  A    between atoms: _114  and  _116
REMARK   50  A    between atoms: _116  and  _117
REMARK   51  A    between atoms: _116  and  _119
REMARK   52  A    between atoms: _119  and  _120
REMARK   53  A    between atoms: _123  and  _125
REMARK   54  A    between atoms: _125  and  _126
REMARK   55  A    between atoms: _129  and  _131
REMARK   56  A    between atoms: _131  and  _132
REMARK   57  A    between atoms: _131  and  _134
REMARK   58  A    between atoms: _134  and  _135
REMARK   59  A    between atoms: _140  and  _142
REMARK   60  A    between atoms: _142  and  _143
REMARK   61  A    between atoms: _142  and  _145
REMARK   62  A    between atoms: _148  and  _150
REMARK   63  A    between atoms: _150  and  _151
REMARK   64  A    between atoms: _150  and  _153
REMARK   65  A    between atoms: _153  and  _154
REMARK   66  A    between atoms: _160  and  _162
REMARK   67  A    between atoms: _162  and  _163
REMARK   68  A    between atoms: _162  and  _165
REMARK   69  A    between atoms: _165  and  _166
REMARK   70  A    between atoms: _166  and  _167
REMARK   71  A    between atoms: _167  and  _168
REMARK   72  A    between atoms: _177  and  _179
REMARK   73  A    between atoms: _179  and  _180
REMARK   74  A    between atoms: _179  and  _182
REMARK   75  A    between atoms: _182  and  _183
REMARK   76  A    between atoms: _186  and  _188
REMARK   77  A    between atoms: _188  and  _189
REMARK   78  A    between atoms: _188  and  _191
REMARK   79  A    between atoms: _191  and  _192
REMARK   80  A    between atoms: _195  and  _197
REMARK   81  A    between atoms: _197  and  _198
REMARK   82  A    between atoms: _201  and  _203
REMARK   83  A    between atoms: _203  and  _204
REMARK   84  A    between atoms: _207  and  _209
REMARK   85  A    between atoms: _209  and  _210
REMARK   86  A    between atoms: _209  and  _212
REMARK   87  A    between atoms: _212  and  _213
REMARK   88  A    between atoms: _213  and  _214
REMARK   89  A    between atoms: _214  and  _215
REMARK   90  A    between atoms: _224  and  _226
REMARK   91  A    between atoms: _226  and  _227
REMARK   92  A    between atoms: _230  and  _232
REMARK   93  A    between atoms: _232  and  _233
REMARK   94  A    between atoms: _232  and  _235
REMARK   95  A    between atoms: _235  and  _236
REMARK   96  A    between atoms: _241  and  _242
REMARK   97  A    between atoms: _244  and  _246
REMARK   98  A    between atoms: _246  and  _247
REMARK   99  A    between atoms: _246  and  _249
REMARK  100  A    between atoms: _249  and  _250
REMARK  101  A    between atoms: _253  and  _255
REMARK  102  A    between atoms: _255  and  _256
REMARK  103  A    between atoms: _255  and  _258
REMARK  104  A    between atoms: _258  and  _259
REMARK  105  A    between atoms: _263  and  _264
REMARK  106  A    between atoms: _270  and  _271
REMARK  107  A    between atoms: _276  and  _278
REMARK  108  A    between atoms: _278  and  _279
REMARK  109  A    between atoms: _278  and  _281
REMARK  110  A    between atoms: _281  and  _282
REMARK  111  A    between atoms: _287  and  _288
REMARK  112  A    between atoms: _290  and  _292
REMARK  113  A    between atoms: _292  and  _293
REMARK  114  A    between atoms: _292  and  _295
REMARK  115  A    between atoms: _295  and  _296
REMARK  116  A    between atoms: _299  and  _301
REMARK  117  A    between atoms: _301  and  _302
REMARK  118  A    between atoms: _305  and  _307
REMARK  119  A    between atoms: _307  and  _308
REMARK  120  A    between atoms: _307  and  _310
REMARK  121  A    between atoms: _310  and  _311
REMARK                            x       y       z     vdW  Elec       q    Type
REMARK                         _______ _______ _______ _____ _____    ______ ____
ROOT
ATOM      1  O   HOH     1      21.402 -25.799  -6.752  0.00  0.00    +0.000 OA
ENDROOT
TORSDOF 0
REMARK  Name = ../refined-set-2016/3mam/3mam_pocket.pdb
REMARK  121 active torsions:
REMARK  status: ('A' for Active; 'I' for Inactive)
REMARK    1  A    between atoms: _1  and  _3
REMARK    2  A    between atoms: _3  and  _4
REMARK    3  A    between atoms: _3  and  _6
REMARK    4  A    between atoms: _6  and  _7
REMARK    5  A    between atoms: _7  and  _8
REMARK    6  A    between atoms: _8  and  _9
REMARK    7  A    between atoms: _9  and  _10
REMARK    8  A    between atoms: _14  and  _16
REMARK    9  A    between atoms: _16  and  _17
REMARK   10  A    between atoms: _16  and  _19
REMARK   11  A    between atoms: _19  and  _20
REMARK   12  A    between atoms: _26  and  _28
REMARK   13  A    between atoms: _28  and  _29
REMARK   14  A    between atoms: _28  and  _31
REMARK   15  A    between atoms: _31  and  _32
REMARK   16  A    between atoms: _37  and  _39
REMARK   17  A    between atoms: _39  and  _40
REMARK   18  A    between atoms: _39  and  _42
REMARK   19  A    between atoms: _42  and  _43
REMARK   20  A    between atoms: _43  and  _44
REMARK   21  A    between atoms: _47  and  _49
REMARK   22  A    between atoms: _49  and  _50
REMARK   23  A    between atoms: _49  and  _52
REMARK   24  A    between atoms: _52  and  _53
REMARK   25  A    between atoms: _53  and  _54
REMARK   26  A    between atoms: _59  and  _61
REMARK   27  A    between atoms: _61  and  _62
REMARK   28  A    between atoms: _61  and  _64
REMARK   29  A    between atoms: _64  and  _65
REMARK   30  A    between atoms: _68  and  _70
REMARK   31  A    between atoms: _70  and  _71
REMARK   32  A    between atoms: _70  and  _73
REMARK   33  A    between atoms: _76  and  _78
REMARK   34  A    between atoms: _78  and  _79
REMARK   35  A    between atoms: _78  and  _81
REMARK   36  A    between atoms: _81  and  _82
REMARK   37  A    between atoms: _82  and  _83
REMARK   38  A    between atoms: _86  and  _88
REMARK   39  A    between atoms: _88  and  _89
REMARK   40  A    between atoms: _88  and  _91
REMARK   41  A    between atoms: _91  and  _92
REMARK   42  A    between atoms: _97  and  _98
REMARK   43  A    between atoms: _100  and  _102
REMARK   44  A    between atoms: _102  and  _103
REMARK   45  A    between atoms: _102  and  _105
REMARK   46  A    between atoms: _105  and  _106
REMARK   47  A    between atoms: _109  and  _111
REMARK   48  A    between atoms: _111  and  _112
REMARK   49  A    between atoms: _114  and  _116
REMARK   50  A    between atoms: _116  and  _117
REMARK   51  A    between atoms: _116  and  _119
REMARK   52  A    between atoms: _119  and  _120
REMARK   53  A    between atoms: _123  and  _125
REMARK   54  A    between atoms: _125  and  _126
REMARK   55  A    between atoms: _129  and  _131
REMARK   56  A    between atoms: _131  and  _132
REMARK   57  A    between atoms: _131  and  _134
REMARK   58  A    between atoms: _134  and  _135
REMARK   59  A    between atoms: _140  and  _142
REMARK   60  A    between atoms: _142  and  _143
REMARK   61  A    between atoms: _142  and  _145
REMARK   62  A    between atoms: _148  and  _150
REMARK   63  A    between atoms: _150  and  _151
REMARK   64  A    between atoms: _150  and  _153
REMARK   65  A    between atoms: _153  and  _154
REMARK   66  A    between atoms: _160  and  _162
REMARK   67  A    between atoms: _162  and  _163
REMARK   68  A    between atoms: _162  and  _165
REMARK   69  A    between atoms: _165  and  _166
REMARK   70  A    between atoms: _166  and  _167
REMARK   71  A    between atoms: _167  and  _168
REMARK   72  A    between atoms: _177  and  _179
REMARK   73  A    between atoms: _179  and  _180
REMARK   74  A    between atoms: _179  and  _182
REMARK   75  A    between atoms: _182  and  _183
REMARK   76  A    between atoms: _186  and  _188
REMARK   77  A    between atoms: _188  and  _189
REMARK   78  A    between atoms: _188  and  _191
REMARK   79  A    between atoms: _191  and  _192
REMARK   80  A    between atoms: _195  and  _197
REMARK   81  A    between atoms: _197  and  _198
REMARK   82  A    between atoms: _201  and  _203
REMARK   83  A    between atoms: _203  and  _204
REMARK   84  A    between atoms: _207  and  _209
REMARK   85  A    between atoms: _209  and  _210
REMARK   86  A    between atoms: _209  and  _212
REMARK   87  A    between atoms: _212  and  _213
REMARK   88  A    between atoms: _213  and  _214
REMARK   89  A    between atoms: _214  and  _215
REMARK   90  A    between atoms: _224  and  _226
REMARK   91  A    between atoms: _226  and  _227
REMARK   92  A    between atoms: _230  and  _232
REMARK   93  A    between atoms: _232  and  _233
REMARK   94  A    between atoms: _232  and  _235
REMARK   95  A    between atoms: _235  and  _236
REMARK   96  A    between atoms: _241  and  _242
REMARK   97  A    between atoms: _244  and  _246
REMARK   98  A    between atoms: _246  and  _247
REMARK   99  A    between atoms: _246  and  _249
REMARK  100  A    between atoms: _249  and  _250
REMARK  101  A    between atoms: _253  and  _255
REMARK  102  A    between atoms: _255  and  _256
REMARK  103  A    between atoms: _255  and  _258
REMARK  104  A    between atoms: _258  and  _259
REMARK  105  A    between atoms: _263  and  _264
REMARK  106  A    between atoms: _270  and  _271
REMARK  107  A    between atoms: _276  and  _278
REMARK  108  A    between atoms: _278  and  _279
REMARK  109  A    between atoms: _278  and  _281
REMARK  110  A    between atoms: _281  and  _282
REMARK  111  A    between atoms: _287  and  _288
REMARK  112  A    between atoms: _290  and  _292
REMARK  113  A    between atoms: _292  and  _293
REMARK  114  A    between atoms: _292  and  _295
REMARK  115  A    between atoms: _295  and  _296
REMARK  116  A    between atoms: _299  and  _301
REMARK  117  A    between atoms: _301  and  _302
REMARK  118  A    between atoms: _305  and  _307
REMARK  119  A    between atoms: _307  and  _308
REMARK  120  A    between atoms: _307  and  _310
REMARK  121  A    between atoms: _310  and  _311
REMARK                            x       y       z     vdW  Elec       q    Type
REMARK                         _______ _______ _______ _____ _____    ______ ____
ROOT
ATOM      1  O   HOH     1      20.614 -24.735  -9.118  0.00  0.00    +0.000 OA
ENDROOT
TORSDOF 0
REMARK  Name = ../refined-set-2016/3mam/3mam_pocket.pdb
REMARK  121 active torsions:
REMARK  status: ('A' for Active; 'I' for Inactive)
REMARK    1  A    between atoms: _1  and  _3
REMARK    2  A    between atoms: _3  and  _4
REMARK    3  A    between atoms: _3  and  _6
REMARK    4  A    between atoms: _6  and  _7
REMARK    5  A    between atoms: _7  and  _8
REMARK    6  A    between atoms: _8  and  _9
REMARK    7  A    between atoms: _9  and  _10
REMARK    8  A    between atoms: _14  and  _16
REMARK    9  A    between atoms: _16  and  _17
REMARK   10  A    between atoms: _16  and  _19
REMARK   11  A    between atoms: _19  and  _20
REMARK   12  A    between atoms: _26  and  _28
REMARK   13  A    between atoms: _28  and  _29
REMARK   14  A    between atoms: _28  and  _31
REMARK   15  A    between atoms: _31  and  _32
REMARK   16  A    between atoms: _37  and  _39
REMARK   17  A    between atoms: _39  and  _40
REMARK   18  A    between atoms: _39  and  _42
REMARK   19  A    between atoms: _42  and  _43
REMARK   20  A    between atoms: _43  and  _44
REMARK   21  A    between atoms: _47  and  _49
REMARK   22  A    between atoms: _49  and  _50
REMARK   23  A    between atoms: _49  and  _52
REMARK   24  A    between atoms: _52  and  _53
REMARK   25  A    between atoms: _53  and  _54
REMARK   26  A    between atoms: _59  and  _61
REMARK   27  A    between atoms: _61  and  _62
REMARK   28  A    between atoms: _61  and  _64
REMARK   29  A    between atoms: _64  and  _65
REMARK   30  A    between atoms: _68  and  _70
REMARK   31  A    between atoms: _70  and  _71
REMARK   32  A    between atoms: _70  and  _73
REMARK   33  A    between atoms: _76  and  _78
REMARK   34  A    between atoms: _78  and  _79
REMARK   35  A    between atoms: _78  and  _81
REMARK   36  A    between atoms: _81  and  _82
REMARK   37  A    between atoms: _82  and  _83
REMARK   38  A    between atoms: _86  and  _88
REMARK   39  A    between atoms: _88  and  _89
REMARK   40  A    between atoms: _88  and  _91
REMARK   41  A    between atoms: _91  and  _92
REMARK   42  A    between atoms: _97  and  _98
REMARK   43  A    between atoms: _100  and  _102
REMARK   44  A    between atoms: _102  and  _103
REMARK   45  A    between atoms: _102  and  _105
REMARK   46  A    between atoms: _105  and  _106
REMARK   47  A    between atoms: _109  and  _111
REMARK   48  A    between atoms: _111  and  _112
REMARK   49  A    between atoms: _114  and  _116
REMARK   50  A    between atoms: _116  and  _117
REMARK   51  A    between atoms: _116  and  _119
REMARK   52  A    between atoms: _119  and  _120
REMARK   53  A    between atoms: _123  and  _125
REMARK   54  A    between atoms: _125  and  _126
REMARK   55  A    between atoms: _129  and  _131
REMARK   56  A    between atoms: _131  and  _132
REMARK   57  A    between atoms: _131  and  _134
REMARK   58  A    between atoms: _134  and  _135
REMARK   59  A    between atoms: _140  and  _142
REMARK   60  A    between atoms: _142  and  _143
REMARK   61  A    between atoms: _142  and  _145
REMARK   62  A    between atoms: _148  and  _150
REMARK   63  A    between atoms: _150  and  _151
REMARK   64  A    between atoms: _150  and  _153
REMARK   65  A    between atoms: _153  and  _154
REMARK   66  A    between atoms: _160  and  _162
REMARK   67  A    between atoms: _162  and  _163
REMARK   68  A    between atoms: _162  and  _165
REMARK   69  A    between atoms: _165  and  _166
REMARK   70  A    between atoms: _166  and  _167
REMARK   71  A    between atoms: _167  and  _168
REMARK   72  A    between atoms: _177  and  _179
REMARK   73  A    between atoms: _179  and  _180
REMARK   74  A    between atoms: _179  and  _182
REMARK   75  A    between atoms: _182  and  _183
REMARK   76  A    between atoms: _186  and  _188
REMARK   77  A    between atoms: _188  and  _189
REMARK   78  A    between atoms: _188  and  _191
REMARK   79  A    between atoms: _191  and  _192
REMARK   80  A    between atoms: _195  and  _197
REMARK   81  A    between atoms: _197  and  _198
REMARK   82  A    between atoms: _201  and  _203
REMARK   83  A    between atoms: _203  and  _204
REMARK   84  A    between atoms: _207  and  _209
REMARK   85  A    between atoms: _209  and  _210
REMARK   86  A    between atoms: _209  and  _212
REMARK   87  A    between atoms: _212  and  _213
REMARK   88  A    between atoms: _213  and  _214
REMARK   89  A    between atoms: _214  and  _215
REMARK   90  A    between atoms: _224  and  _226
REMARK   91  A    between atoms: _226  and  _227
REMARK   92  A    between atoms: _230  and  _232
REMARK   93  A    between atoms: _232  and  _233
REMARK   94  A    between atoms: _232  and  _235
REMARK   95  A    between atoms: _235  and  _236
REMARK   96  A    between atoms: _241  and  _242
REMARK   97  A    between atoms: _244  and  _246
REMARK   98  A    between atoms: _246  and  _247
REMARK   99  A    between atoms: _246  and  _249
REMARK  100  A    between atoms: _249  and  _250
REMARK  101  A    between atoms: _253  and  _255
REMARK  102  A    between atoms: _255  and  _256
REMARK  103  A    between atoms: _255  and  _258
REMARK  104  A    between atoms: _258  and  _259
REMARK  105  A    between atoms: _263  and  _264
REMARK  106  A    between atoms: _270  and  _271
REMARK  107  A    between atoms: _276  and  _278
REMARK  108  A    between atoms: _278  and  _279
REMARK  109  A    between atoms: _278  and  _281
REMARK  110  A    between atoms: _281  and  _282
REMARK  111  A    between atoms: _287  and  _288
REMARK  112  A    between atoms: _290  and  _292
REMARK  113  A    between atoms: _292  and  _293
REMARK  114  A    between atoms: _292  and  _295
REMARK  115  A    between atoms: _295  and  _296
REMARK  116  A    between atoms: _299  and  _301
REMARK  117  A    between atoms: _301  and  _302
REMARK  118  A    between atoms: _305  and  _307
REMARK  119  A    between atoms: _307  and  _308
REMARK  120  A    between atoms: _307  and  _310
REMARK  121  A    between atoms: _310  and  _311
REMARK                            x       y       z     vdW  Elec       q    Type
REMARK                         _______ _______ _______ _____ _____    ______ ____
ROOT
ATOM      1  O   HOH     1      18.547 -22.378 -14.582  0.00  0.00    +0.000 OA
ENDROOT
TORSDOF 0
REMARK  Name = ../refined-set-2016/3mam/3mam_pocket.pdb
REMARK  121 active torsions:
REMARK  status: ('A' for Active; 'I' for Inactive)
REMARK    1  A    between atoms: _1  and  _3
REMARK    2  A    between atoms: _3  and  _4
REMARK    3  A    between atoms: _3  and  _6
REMARK    4  A    between atoms: _6  and  _7
REMARK    5  A    between atoms: _7  and  _8
REMARK    6  A    between atoms: _8  and  _9
REMARK    7  A    between atoms: _9  and  _10
REMARK    8  A    between atoms: _14  and  _16
REMARK    9  A    between atoms: _16  and  _17
REMARK   10  A    between atoms: _16  and  _19
REMARK   11  A    between atoms: _19  and  _20
REMARK   12  A    between atoms: _26  and  _28
REMARK   13  A    between atoms: _28  and  _29
REMARK   14  A    between atoms: _28  and  _31
REMARK   15  A    between atoms: _31  and  _32
REMARK   16  A    between atoms: _37  and  _39
REMARK   17  A    between atoms: _39  and  _40
REMARK   18  A    between atoms: _39  and  _42
REMARK   19  A    between atoms: _42  and  _43
REMARK   20  A    between atoms: _43  and  _44
REMARK   21  A    between atoms: _47  and  _49
REMARK   22  A    between atoms: _49  and  _50
REMARK   23  A    between atoms: _49  and  _52
REMARK   24  A    between atoms: _52  and  _53
REMARK   25  A    between atoms: _53  and  _54
REMARK   26  A    between atoms: _59  and  _61
REMARK   27  A    between atoms: _61  and  _62
REMARK   28  A    between atoms: _61  and  _64
REMARK   29  A    between atoms: _64  and  _65
REMARK   30  A    between atoms: _68  and  _70
REMARK   31  A    between atoms: _70  and  _71
REMARK   32  A    between atoms: _70  and  _73
REMARK   33  A    between atoms: _76  and  _78
REMARK   34  A    between atoms: _78  and  _79
REMARK   35  A    between atoms: _78  and  _81
REMARK   36  A    between atoms: _81  and  _82
REMARK   37  A    between atoms: _82  and  _83
REMARK   38  A    between atoms: _86  and  _88
REMARK   39  A    between atoms: _88  and  _89
REMARK   40  A    between atoms: _88  and  _91
REMARK   41  A    between atoms: _91  and  _92
REMARK   42  A    between atoms: _97  and  _98
REMARK   43  A    between atoms: _100  and  _102
REMARK   44  A    between atoms: _102  and  _103
REMARK   45  A    between atoms: _102  and  _105
REMARK   46  A    between atoms: _105  and  _106
REMARK   47  A    between atoms: _109  and  _111
REMARK   48  A    between atoms: _111  and  _112
REMARK   49  A    between atoms: _114  and  _116
REMARK   50  A    between atoms: _116  and  _117
REMARK   51  A    between atoms: _116  and  _119
REMARK   52  A    between atoms: _119  and  _120
REMARK   53  A    between atoms: _123  and  _125
REMARK   54  A    between atoms: _125  and  _126
REMARK   55  A    between atoms: _129  and  _131
REMARK   56  A    between atoms: _131  and  _132
REMARK   57  A    between atoms: _131  and  _134
REMARK   58  A    between atoms: _134  and  _135
REMARK   59  A    between atoms: _140  and  _142
REMARK   60  A    between atoms: _142  and  _143
REMARK   61  A    between atoms: _142  and  _145
REMARK   62  A    between atoms: _148  and  _150
REMARK   63  A    between atoms: _150  and  _151
REMARK   64  A    between atoms: _150  and  _153
REMARK   65  A    between atoms: _153  and  _154
REMARK   66  A    between atoms: _160  and  _162
REMARK   67  A    between atoms: _162  and  _163
REMARK   68  A    between atoms: _162  and  _165
REMARK   69  A    between atoms: _165  and  _166
REMARK   70  A    between atoms: _166  and  _167
REMARK   71  A    between atoms: _167  and  _168
REMARK   72  A    between atoms: _177  and  _179
REMARK   73  A    between atoms: _179  and  _180
REMARK   74  A    between atoms: _179  and  _182
REMARK   75  A    between atoms: _182  and  _183
REMARK   76  A    between atoms: _186  and  _188
REMARK   77  A    between atoms: _188  and  _189
REMARK   78  A    between atoms: _188  and  _191
REMARK   79  A    between atoms: _191  and  _192
REMARK   80  A    between atoms: _195  and  _197
REMARK   81  A    between atoms: _197  and  _198
REMARK   82  A    between atoms: _201  and  _203
REMARK   83  A    between atoms: _203  and  _204
REMARK   84  A    between atoms: _207  and  _209
REMARK   85  A    between atoms: _209  and  _210
REMARK   86  A    between atoms: _209  and  _212
REMARK   87  A    between atoms: _212  and  _213
REMARK   88  A    between atoms: _213  and  _214
REMARK   89  A    between atoms: _214  and  _215
REMARK   90  A    between atoms: _224  and  _226
REMARK   91  A    between atoms: _226  and  _227
REMARK   92  A    between atoms: _230  and  _232
REMARK   93  A    between atoms: _232  and  _233
REMARK   94  A    between atoms: _232  and  _235
REMARK   95  A    between atoms: _235  and  _236
REMARK   96  A    between atoms: _241  and  _242
REMARK   97  A    between atoms: _244  and  _246
REMARK   98  A    between atoms: _246  and  _247
REMARK   99  A    between atoms: _246  and  _249
REMARK  100  A    between atoms: _249  and  _250
REMARK  101  A    between atoms: _253  and  _255
REMARK  102  A    between atoms: _255  and  _256
REMARK  103  A    between atoms: _255  and  _258
REMARK  104  A    between atoms: _258  and  _259
REMARK  105  A    between atoms: _263  and  _264
REMARK  106  A    between atoms: _270  and  _271
REMARK  107  A    between atoms: _276  and  _278
REMARK  108  A    between atoms: _278  and  _279
REMARK  109  A    between atoms: _278  and  _281
REMARK  110  A    between atoms: _281  and  _282
REMARK  111  A    between atoms: _287  and  _288
REMARK  112  A    between atoms: _290  and  _292
REMARK  113  A    between atoms: _292  and  _293
REMARK  114  A    between atoms: _292  and  _295
REMARK  115  A    between atoms: _295  and  _296
REMARK  116  A    between atoms: _299  and  _301
REMARK  117  A    between atoms: _301  and  _302
REMARK  118  A    between atoms: _305  and  _307
REMARK  119  A    between atoms: _307  and  _308
REMARK  120  A    between atoms: _307  and  _310
REMARK  121  A    between atoms: _310  and  _311
REMARK                            x       y       z     vdW  Elec       q    Type
REMARK                         _______ _______ _______ _____ _____    ______ ____
ROOT
ATOM      1  O   HOH     1      24.010 -24.989  -5.776  0.00  0.00    +0.000 OA
ENDROOT
TORSDOF 0
REMARK  Name = ../refined-set-2016/3mam/3mam_pocket.pdb
REMARK  121 active torsions:
REMARK  status: ('A' for Active; 'I' for Inactive)
REMARK    1  A    between atoms: _1  and  _3
REMARK    2  A    between atoms: _3  and  _4
REMARK    3  A    between atoms: _3  and  _6
REMARK    4  A    between atoms: _6  and  _7
REMARK    5  A    between atoms: _7  and  _8
REMARK    6  A    between atoms: _8  and  _9
REMARK    7  A    between atoms: _9  and  _10
REMARK    8  A    between atoms: _14  and  _16
REMARK    9  A    between atoms: _16  and  _17
REMARK   10  A    between atoms: _16  and  _19
REMARK   11  A    between atoms: _19  and  _20
REMARK   12  A    between atoms: _26  and  _28
REMARK   13  A    between atoms: _28  and  _29
REMARK   14  A    between atoms: _28  and  _31
REMARK   15  A    between atoms: _31  and  _32
REMARK   16  A    between atoms: _37  and  _39
REMARK   17  A    between atoms: _39  and  _40
REMARK   18  A    between atoms: _39  and  _42
REMARK   19  A    between atoms: _42  and  _43
REMARK   20  A    between atoms: _43  and  _44
REMARK   21  A    between atoms: _47  and  _49
REMARK   22  A    between atoms: _49  and  _50
REMARK   23  A    between atoms: _49  and  _52
REMARK   24  A    between atoms: _52  and  _53
REMARK   25  A    between atoms: _53  and  _54
REMARK   26  A    between atoms: _59  and  _61
REMARK   27  A    between atoms: _61  and  _62
REMARK   28  A    between atoms: _61  and  _64
REMARK   29  A    between atoms: _64  and  _65
REMARK   30  A    between atoms: _68  and  _70
REMARK   31  A    between atoms: _70  and  _71
REMARK   32  A    between atoms: _70  and  _73
REMARK   33  A    between atoms: _76  and  _78
REMARK   34  A    between atoms: _78  and  _79
REMARK   35  A    between atoms: _78  and  _81
REMARK   36  A    between atoms: _81  and  _82
REMARK   37  A    between atoms: _82  and  _83
REMARK   38  A    between atoms: _86  and  _88
REMARK   39  A    between atoms: _88  and  _89
REMARK   40  A    between atoms: _88  and  _91
REMARK   41  A    between atoms: _91  and  _92
REMARK   42  A    between atoms: _97  and  _98
REMARK   43  A    between atoms: _100  and  _102
REMARK   44  A    between atoms: _102  and  _103
REMARK   45  A    between atoms: _102  and  _105
REMARK   46  A    between atoms: _105  and  _106
REMARK   47  A    between atoms: _109  and  _111
REMARK   48  A    between atoms: _111  and  _112
REMARK   49  A    between atoms: _114  and  _116
REMARK   50  A    between atoms: _116  and  _117
REMARK   51  A    between atoms: _116  and  _119
REMARK   52  A    between atoms: _119  and  _120
REMARK   53  A    between atoms: _123  and  _125
REMARK   54  A    between atoms: _125  and  _126
REMARK   55  A    between atoms: _129  and  _131
REMARK   56  A    between atoms: _131  and  _132
REMARK   57  A    between atoms: _131  and  _134
REMARK   58  A    between atoms: _134  and  _135
REMARK   59  A    between atoms: _140  and  _142
REMARK   60  A    between atoms: _142  and  _143
REMARK   61  A    between atoms: _142  and  _145
REMARK   62  A    between atoms: _148  and  _150
REMARK   63  A    between atoms: _150  and  _151
REMARK   64  A    between atoms: _150  and  _153
REMARK   65  A    between atoms: _153  and  _154
REMARK   66  A    between atoms: _160  and  _162
REMARK   67  A    between atoms: _162  and  _163
REMARK   68  A    between atoms: _162  and  _165
REMARK   69  A    between atoms: _165  and  _166
REMARK   70  A    between atoms: _166  and  _167
REMARK   71  A    between atoms: _167  and  _168
REMARK   72  A    between atoms: _177  and  _179
REMARK   73  A    between atoms: _179  and  _180
REMARK   74  A    between atoms: _179  and  _182
REMARK   75  A    between atoms: _182  and  _183
REMARK   76  A    between atoms: _186  and  _188
REMARK   77  A    between atoms: _188  and  _189
REMARK   78  A    between atoms: _188  and  _191
REMARK   79  A    between atoms: _191  and  _192
REMARK   80  A    between atoms: _195  and  _197
REMARK   81  A    between atoms: _197  and  _198
REMARK   82  A    between atoms: _201  and  _203
REMARK   83  A    between atoms: _203  and  _204
REMARK   84  A    between atoms: _207  and  _209
REMARK   85  A    between atoms: _209  and  _210
REMARK   86  A    between atoms: _209  and  _212
REMARK   87  A    between atoms: _212  and  _213
REMARK   88  A    between atoms: _213  and  _214
REMARK   89  A    between atoms: _214  and  _215
REMARK   90  A    between atoms: _224  and  _226
REMARK   91  A    between atoms: _226  and  _227
REMARK   92  A    between atoms: _230  and  _232
REMARK   93  A    between atoms: _232  and  _233
REMARK   94  A    between atoms: _232  and  _235
REMARK   95  A    between atoms: _235  and  _236
REMARK   96  A    between atoms: _241  and  _242
REMARK   97  A    between atoms: _244  and  _246
REMARK   98  A    between atoms: _246  and  _247
REMARK   99  A    between atoms: _246  and  _249
REMARK  100  A    between atoms: _249  and  _250
REMARK  101  A    between atoms: _253  and  _255
REMARK  102  A    between atoms: _255  and  _256
REMARK  103  A    between atoms: _255  and  _258
REMARK  104  A    between atoms: _258  and  _259
REMARK  105  A    between atoms: _263  and  _264
REMARK  106  A    between atoms: _270  and  _271
REMARK  107  A    between atoms: _276  and  _278
REMARK  108  A    between atoms: _278  and  _279
REMARK  109  A    between atoms: _278  and  _281
REMARK  110  A    between atoms: _281  and  _282
REMARK  111  A    between atoms: _287  and  _288
REMARK  112  A    between atoms: _290  and  _292
REMARK  113  A    between atoms: _292  and  _293
REMARK  114  A    between atoms: _292  and  _295
REMARK  115  A    between atoms: _295  and  _296
REMARK  116  A    between atoms: _299  and  _301
REMARK  117  A    between atoms: _301  and  _302
REMARK  118  A    between atoms: _305  and  _307
REMARK  119  A    between atoms: _307  and  _308
REMARK  120  A    between atoms: _307  and  _310
REMARK  121  A    between atoms: _310  and  _311
REMARK                            x       y       z     vdW  Elec       q    Type
REMARK                         _______ _______ _______ _____ _____    ______ ____
ROOT
ATOM      1  O   HOH     1      15.679 -23.350 -15.007  0.00  0.00    +0.000 OA
ENDROOT
TORSDOF 0
REMARK  Name = ../refined-set-2016/3mam/3mam_pocket.pdb
REMARK  121 active torsions:
REMARK  status: ('A' for Active; 'I' for Inactive)
REMARK    1  A    between atoms: _1  and  _3
REMARK    2  A    between atoms: _3  and  _4
REMARK    3  A    between atoms: _3  and  _6
REMARK    4  A    between atoms: _6  and  _7
REMARK    5  A    between atoms: _7  and  _8
REMARK    6  A    between atoms: _8  and  _9
REMARK    7  A    between atoms: _9  and  _10
REMARK    8  A    between atoms: _14  and  _16
REMARK    9  A    between atoms: _16  and  _17
REMARK   10  A    between atoms: _16  and  _19
REMARK   11  A    between atoms: _19  and  _20
REMARK   12  A    between atoms: _26  and  _28
REMARK   13  A    between atoms: _28  and  _29
REMARK   14  A    between atoms: _28  and  _31
REMARK   15  A    between atoms: _31  and  _32
REMARK   16  A    between atoms: _37  and  _39
REMARK   17  A    between atoms: _39  and  _40
REMARK   18  A    between atoms: _39  and  _42
REMARK   19  A    between atoms: _42  and  _43
REMARK   20  A    between atoms: _43  and  _44
REMARK   21  A    between atoms: _47  and  _49
REMARK   22  A    between atoms: _49  and  _50
REMARK   23  A    between atoms: _49  and  _52
REMARK   24  A    between atoms: _52  and  _53
REMARK   25  A    between atoms: _53  and  _54
REMARK   26  A    between atoms: _59  and  _61
REMARK   27  A    between atoms: _61  and  _62
REMARK   28  A    between atoms: _61  and  _64
REMARK   29  A    between atoms: _64  and  _65
REMARK   30  A    between atoms: _68  and  _70
REMARK   31  A    between atoms: _70  and  _71
REMARK   32  A    between atoms: _70  and  _73
REMARK   33  A    between atoms: _76  and  _78
REMARK   34  A    between atoms: _78  and  _79
REMARK   35  A    between atoms: _78  and  _81
REMARK   36  A    between atoms: _81  and  _82
REMARK   37  A    between atoms: _82  and  _83
REMARK   38  A    between atoms: _86  and  _88
REMARK   39  A    between atoms: _88  and  _89
REMARK   40  A    between atoms: _88  and  _91
REMARK   41  A    between atoms: _91  and  _92
REMARK   42  A    between atoms: _97  and  _98
REMARK   43  A    between atoms: _100  and  _102
REMARK   44  A    between atoms: _102  and  _103
REMARK   45  A    between atoms: _102  and  _105
REMARK   46  A    between atoms: _105  and  _106
REMARK   47  A    between atoms: _109  and  _111
REMARK   48  A    between atoms: _111  and  _112
REMARK   49  A    between atoms: _114  and  _116
REMARK   50  A    between atoms: _116  and  _117
REMARK   51  A    between atoms: _116  and  _119
REMARK   52  A    between atoms: _119  and  _120
REMARK   53  A    between atoms: _123  and  _125
REMARK   54  A    between atoms: _125  and  _126
REMARK   55  A    between atoms: _129  and  _131
REMARK   56  A    between atoms: _131  and  _132
REMARK   57  A    between atoms: _131  and  _134
REMARK   58  A    between atoms: _134  and  _135
REMARK   59  A    between atoms: _140  and  _142
REMARK   60  A    between atoms: _142  and  _143
REMARK   61  A    between atoms: _142  and  _145
REMARK   62  A    between atoms: _148  and  _150
REMARK   63  A    between atoms: _150  and  _151
REMARK   64  A    between atoms: _150  and  _153
REMARK   65  A    between atoms: _153  and  _154
REMARK   66  A    between atoms: _160  and  _162
REMARK   67  A    between atoms: _162  and  _163
REMARK   68  A    between atoms: _162  and  _165
REMARK   69  A    between atoms: _165  and  _166
REMARK   70  A    between atoms: _166  and  _167
REMARK   71  A    between atoms: _167  and  _168
REMARK   72  A    between atoms: _177  and  _179
REMARK   73  A    between atoms: _179  and  _180
REMARK   74  A    between atoms: _179  and  _182
REMARK   75  A    between atoms: _182  and  _183
REMARK   76  A    between atoms: _186  and  _188
REMARK   77  A    between atoms: _188  and  _189
REMARK   78  A    between atoms: _188  and  _191
REMARK   79  A    between atoms: _191  and  _192
REMARK   80  A    between atoms: _195  and  _197
REMARK   81  A    between atoms: _197  and  _198
REMARK   82  A    between atoms: _201  and  _203
REMARK   83  A    between atoms: _203  and  _204
REMARK   84  A    between atoms: _207  and  _209
REMARK   85  A    between atoms: _209  and  _210
REMARK   86  A    between atoms: _209  and  _212
REMARK   87  A    between atoms: _212  and  _213
REMARK   88  A    between atoms: _213  and  _214
REMARK   89  A    between atoms: _214  and  _215
REMARK   90  A    between atoms: _224  and  _226
REMARK   91  A    between atoms: _226  and  _227
REMARK   92  A    between atoms: _230  and  _232
REMARK   93  A    between atoms: _232  and  _233
REMARK   94  A    between atoms: _232  and  _235
REMARK   95  A    between atoms: _235  and  _236
REMARK   96  A    between atoms: _241  and  _242
REMARK   97  A    between atoms: _244  and  _246
REMARK   98  A    between atoms: _246  and  _247
REMARK   99  A    between atoms: _246  and  _249
REMARK  100  A    between atoms: _249  and  _250
REMARK  101  A    between atoms: _253  and  _255
REMARK  102  A    between atoms: _255  and  _256
REMARK  103  A    between atoms: _255  and  _258
REMARK  104  A    between atoms: _258  and  _259
REMARK  105  A    between atoms: _263  and  _264
REMARK  106  A    between atoms: _270  and  _271
REMARK  107  A    between atoms: _276  and  _278
REMARK  108  A    between atoms: _278  and  _279
REMARK  109  A    between atoms: _278  and  _281
REMARK  110  A    between atoms: _281  and  _282
REMARK  111  A    between atoms: _287  and  _288
REMARK  112  A    between atoms: _290  and  _292
REMARK  113  A    between atoms: _292  and  _293
REMARK  114  A    between atoms: _292  and  _295
REMARK  115  A    between atoms: _295  and  _296
REMARK  116  A    between atoms: _299  and  _301
REMARK  117  A    between atoms: _301  and  _302
REMARK  118  A    between atoms: _305  and  _307
REMARK  119  A    between atoms: _307  and  _308
REMARK  120  A    between atoms: _307  and  _310
REMARK  121  A    between atoms: _310  and  _311
REMARK                            x       y       z     vdW  Elec       q    Type
REMARK                         _______ _______ _______ _____ _____    ______ ____
ROOT
ATOM      1  O   HOH     1      20.251 -24.969 -13.504  0.00  0.00    +0.000 OA
ENDROOT
TORSDOF 0
REMARK  Name = ../refined-set-2016/3mam/3mam_pocket.pdb
REMARK  121 active torsions:
REMARK  status: ('A' for Active; 'I' for Inactive)
REMARK    1  A    between atoms: _1  and  _3
REMARK    2  A    between atoms: _3  and  _4
REMARK    3  A    between atoms: _3  and  _6
REMARK    4  A    between atoms: _6  and  _7
REMARK    5  A    between atoms: _7  and  _8
REMARK    6  A    between atoms: _8  and  _9
REMARK    7  A    between atoms: _9  and  _10
REMARK    8  A    between atoms: _14  and  _16
REMARK    9  A    between atoms: _16  and  _17
REMARK   10  A    between atoms: _16  and  _19
REMARK   11  A    between atoms: _19  and  _20
REMARK   12  A    between atoms: _26  and  _28
REMARK   13  A    between atoms: _28  and  _29
REMARK   14  A    between atoms: _28  and  _31
REMARK   15  A    between atoms: _31  and  _32
REMARK   16  A    between atoms: _37  and  _39
REMARK   17  A    between atoms: _39  and  _40
REMARK   18  A    between atoms: _39  and  _42
REMARK   19  A    between atoms: _42  and  _43
REMARK   20  A    between atoms: _43  and  _44
REMARK   21  A    between atoms: _47  and  _49
REMARK   22  A    between atoms: _49  and  _50
REMARK   23  A    between atoms: _49  and  _52
REMARK   24  A    between atoms: _52  and  _53
REMARK   25  A    between atoms: _53  and  _54
REMARK   26  A    between atoms: _59  and  _61
REMARK   27  A    between atoms: _61  and  _62
REMARK   28  A    between atoms: _61  and  _64
REMARK   29  A    between atoms: _64  and  _65
REMARK   30  A    between atoms: _68  and  _70
REMARK   31  A    between atoms: _70  and  _71
REMARK   32  A    between atoms: _70  and  _73
REMARK   33  A    between atoms: _76  and  _78
REMARK   34  A    between atoms: _78  and  _79
REMARK   35  A    between atoms: _78  and  _81
REMARK   36  A    between atoms: _81  and  _82
REMARK   37  A    between atoms: _82  and  _83
REMARK   38  A    between atoms: _86  and  _88
REMARK   39  A    between atoms: _88  and  _89
REMARK   40  A    between atoms: _88  and  _91
REMARK   41  A    between atoms: _91  and  _92
REMARK   42  A    between atoms: _97  and  _98
REMARK   43  A    between atoms: _100  and  _102
REMARK   44  A    between atoms: _102  and  _103
REMARK   45  A    between atoms: _102  and  _105
REMARK   46  A    between atoms: _105  and  _106
REMARK   47  A    between atoms: _109  and  _111
REMARK   48  A    between atoms: _111  and  _112
REMARK   49  A    between atoms: _114  and  _116
REMARK   50  A    between atoms: _116  and  _117
REMARK   51  A    between atoms: _116  and  _119
REMARK   52  A    between atoms: _119  and  _120
REMARK   53  A    between atoms: _123  and  _125
REMARK   54  A    between atoms: _125  and  _126
REMARK   55  A    between atoms: _129  and  _131
REMARK   56  A    between atoms: _131  and  _132
REMARK   57  A    between atoms: _131  and  _134
REMARK   58  A    between atoms: _134  and  _135
REMARK   59  A    between atoms: _140  and  _142
REMARK   60  A    between atoms: _142  and  _143
REMARK   61  A    between atoms: _142  and  _145
REMARK   62  A    between atoms: _148  and  _150
REMARK   63  A    between atoms: _150  and  _151
REMARK   64  A    between atoms: _150  and  _153
REMARK   65  A    between atoms: _153  and  _154
REMARK   66  A    between atoms: _160  and  _162
REMARK   67  A    between atoms: _162  and  _163
REMARK   68  A    between atoms: _162  and  _165
REMARK   69  A    between atoms: _165  and  _166
REMARK   70  A    between atoms: _166  and  _167
REMARK   71  A    between atoms: _167  and  _168
REMARK   72  A    between atoms: _177  and  _179
REMARK   73  A    between atoms: _179  and  _180
REMARK   74  A    between atoms: _179  and  _182
REMARK   75  A    between atoms: _182  and  _183
REMARK   76  A    between atoms: _186  and  _188
REMARK   77  A    between atoms: _188  and  _189
REMARK   78  A    between atoms: _188  and  _191
REMARK   79  A    between atoms: _191  and  _192
REMARK   80  A    between atoms: _195  and  _197
REMARK   81  A    between atoms: _197  and  _198
REMARK   82  A    between atoms: _201  and  _203
REMARK   83  A    between atoms: _203  and  _204
REMARK   84  A    between atoms: _207  and  _209
REMARK   85  A    between atoms: _209  and  _210
REMARK   86  A    between atoms: _209  and  _212
REMARK   87  A    between atoms: _212  and  _213
REMARK   88  A    between atoms: _213  and  _214
REMARK   89  A    between atoms: _214  and  _215
REMARK   90  A    between atoms: _224  and  _226
REMARK   91  A    between atoms: _226  and  _227
REMARK   92  A    between atoms: _230  and  _232
REMARK   93  A    between atoms: _232  and  _233
REMARK   94  A    between atoms: _232  and  _235
REMARK   95  A    between atoms: _235  and  _236
REMARK   96  A    between atoms: _241  and  _242
REMARK   97  A    between atoms: _244  and  _246
REMARK   98  A    between atoms: _246  and  _247
REMARK   99  A    between atoms: _246  and  _249
REMARK  100  A    between atoms: _249  and  _250
REMARK  101  A    between atoms: _253  and  _255
REMARK  102  A    between atoms: _255  and  _256
REMARK  103  A    between atoms: _255  and  _258
REMARK  104  A    between atoms: _258  and  _259
REMARK  105  A    between atoms: _263  and  _264
REMARK  106  A    between atoms: _270  and  _271
REMARK  107  A    between atoms: _276  and  _278
REMARK  108  A    between atoms: _278  and  _279
REMARK  109  A    between atoms: _278  and  _281
REMARK  110  A    between atoms: _281  and  _282
REMARK  111  A    between atoms: _287  and  _288
REMARK  112  A    between atoms: _290  and  _292
REMARK  113  A    between atoms: _292  and  _293
REMARK  114  A    between atoms: _292  and  _295
REMARK  115  A    between atoms: _295  and  _296
REMARK  116  A    between atoms: _299  and  _301
REMARK  117  A    between atoms: _301  and  _302
REMARK  118  A    between atoms: _305  and  _307
REMARK  119  A    between atoms: _307  and  _308
REMARK  120  A    between atoms: _307  and  _310
REMARK  121  A    between atoms: _310  and  _311
REMARK                            x       y       z     vdW  Elec       q    Type
REMARK                         _______ _______ _______ _____ _____    ______ ____
ROOT
ATOM      1  O   HOH     1      16.096 -25.246 -10.082  0.00  0.00    +0.000 OA
ENDROOT
TORSDOF 0
REMARK  Name = ../refined-set-2016/3mam/3mam_pocket.pdb
REMARK  121 active torsions:
REMARK  status: ('A' for Active; 'I' for Inactive)
REMARK    1  A    between atoms: _1  and  _3
REMARK    2  A    between atoms: _3  and  _4
REMARK    3  A    between atoms: _3  and  _6
REMARK    4  A    between atoms: _6  and  _7
REMARK    5  A    between atoms: _7  and  _8
REMARK    6  A    between atoms: _8  and  _9
REMARK    7  A    between atoms: _9  and  _10
REMARK    8  A    between atoms: _14  and  _16
REMARK    9  A    between atoms: _16  and  _17
REMARK   10  A    between atoms: _16  and  _19
REMARK   11  A    between atoms: _19  and  _20
REMARK   12  A    between atoms: _26  and  _28
REMARK   13  A    between atoms: _28  and  _29
REMARK   14  A    between atoms: _28  and  _31
REMARK   15  A    between atoms: _31  and  _32
REMARK   16  A    between atoms: _37  and  _39
REMARK   17  A    between atoms: _39  and  _40
REMARK   18  A    between atoms: _39  and  _42
REMARK   19  A    between atoms: _42  and  _43
REMARK   20  A    between atoms: _43  and  _44
REMARK   21  A    between atoms: _47  and  _49
REMARK   22  A    between atoms: _49  and  _50
REMARK   23  A    between atoms: _49  and  _52
REMARK   24  A    between atoms: _52  and  _53
REMARK   25  A    between atoms: _53  and  _54
REMARK   26  A    between atoms: _59  and  _61
REMARK   27  A    between atoms: _61  and  _62
REMARK   28  A    between atoms: _61  and  _64
REMARK   29  A    between atoms: _64  and  _65
REMARK   30  A    between atoms: _68  and  _70
REMARK   31  A    between atoms: _70  and  _71
REMARK   32  A    between atoms: _70  and  _73
REMARK   33  A    between atoms: _76  and  _78
REMARK   34  A    between atoms: _78  and  _79
REMARK   35  A    between atoms: _78  and  _81
REMARK   36  A    between atoms: _81  and  _82
REMARK   37  A    between atoms: _82  and  _83
REMARK   38  A    between atoms: _86  and  _88
REMARK   39  A    between atoms: _88  and  _89
REMARK   40  A    between atoms: _88  and  _91
REMARK   41  A    between atoms: _91  and  _92
REMARK   42  A    between atoms: _97  and  _98
REMARK   43  A    between atoms: _100  and  _102
REMARK   44  A    between atoms: _102  and  _103
REMARK   45  A    between atoms: _102  and  _105
REMARK   46  A    between atoms: _105  and  _106
REMARK   47  A    between atoms: _109  and  _111
REMARK   48  A    between atoms: _111  and  _112
REMARK   49  A    between atoms: _114  and  _116
REMARK   50  A    between atoms: _116  and  _117
REMARK   51  A    between atoms: _116  and  _119
REMARK   52  A    between atoms: _119  and  _120
REMARK   53  A    between atoms: _123  and  _125
REMARK   54  A    between atoms: _125  and  _126
REMARK   55  A    between atoms: _129  and  _131
REMARK   56  A    between atoms: _131  and  _132
REMARK   57  A    between atoms: _131  and  _134
REMARK   58  A    between atoms: _134  and  _135
REMARK   59  A    between atoms: _140  and  _142
REMARK   60  A    between atoms: _142  and  _143
REMARK   61  A    between atoms: _142  and  _145
REMARK   62  A    between atoms: _148  and  _150
REMARK   63  A    between atoms: _150  and  _151
REMARK   64  A    between atoms: _150  and  _153
REMARK   65  A    between atoms: _153  and  _154
REMARK   66  A    between atoms: _160  and  _162
REMARK   67  A    between atoms: _162  and  _163
REMARK   68  A    between atoms: _162  and  _165
REMARK   69  A    between atoms: _165  and  _166
REMARK   70  A    between atoms: _166  and  _167
REMARK   71  A    between atoms: _167  and  _168
REMARK   72  A    between atoms: _177  and  _179
REMARK   73  A    between atoms: _179  and  _180
REMARK   74  A    between atoms: _179  and  _182
REMARK   75  A    between atoms: _182  and  _183
REMARK   76  A    between atoms: _186  and  _188
REMARK   77  A    between atoms: _188  and  _189
REMARK   78  A    between atoms: _188  and  _191
REMARK   79  A    between atoms: _191  and  _192
REMARK   80  A    between atoms: _195  and  _197
REMARK   81  A    between atoms: _197  and  _198
REMARK   82  A    between atoms: _201  and  _203
REMARK   83  A    between atoms: _203  and  _204
REMARK   84  A    between atoms: _207  and  _209
REMARK   85  A    between atoms: _209  and  _210
REMARK   86  A    between atoms: _209  and  _212
REMARK   87  A    between atoms: _212  and  _213
REMARK   88  A    between atoms: _213  and  _214
REMARK   89  A    between atoms: _214  and  _215
REMARK   90  A    between atoms: _224  and  _226
REMARK   91  A    between atoms: _226  and  _227
REMARK   92  A    between atoms: _230  and  _232
REMARK   93  A    between atoms: _232  and  _233
REMARK   94  A    between atoms: _232  and  _235
REMARK   95  A    between atoms: _235  and  _236
REMARK   96  A    between atoms: _241  and  _242
REMARK   97  A    between atoms: _244  and  _246
REMARK   98  A    between atoms: _246  and  _247
REMARK   99  A    between atoms: _246  and  _249
REMARK  100  A    between atoms: _249  and  _250
REMARK  101  A    between atoms: _253  and  _255
REMARK  102  A    between atoms: _255  and  _256
REMARK  103  A    between atoms: _255  and  _258
REMARK  104  A    between atoms: _258  and  _259
REMARK  105  A    between atoms: _263  and  _264
REMARK  106  A    between atoms: _270  and  _271
REMARK  107  A    between atoms: _276  and  _278
REMARK  108  A    between atoms: _278  and  _279
REMARK  109  A    between atoms: _278  and  _281
REMARK  110  A    between atoms: _281  and  _282
REMARK  111  A    between atoms: _287  and  _288
REMARK  112  A    between atoms: _290  and  _292
REMARK  113  A    between atoms: _292  and  _293
REMARK  114  A    between atoms: _292  and  _295
REMARK  115  A    between atoms: _295  and  _296
REMARK  116  A    between atoms: _299  and  _301
REMARK  117  A    between atoms: _301  and  _302
REMARK  118  A    between atoms: _305  and  _307
REMARK  119  A    between atoms: _307  and  _308
REMARK  120  A    between atoms: _307  and  _310
REMARK  121  A    between atoms: _310  and  _311
REMARK                            x       y       z     vdW  Elec       q    Type
REMARK                         _______ _______ _______ _____ _____    ______ ____
ROOT
ATOM      1  O   HOH     1      18.399 -23.475  -9.537  0.00  0.00    +0.000 OA
ENDROOT
TORSDOF 0
REMARK  Name = ../refined-set-2016/3mam/3mam_pocket.pdb
REMARK  121 active torsions:
REMARK  status: ('A' for Active; 'I' for Inactive)
REMARK    1  A    between atoms: _1  and  _3
REMARK    2  A    between atoms: _3  and  _4
REMARK    3  A    between atoms: _3  and  _6
REMARK    4  A    between atoms: _6  and  _7
REMARK    5  A    between atoms: _7  and  _8
REMARK    6  A    between atoms: _8  and  _9
REMARK    7  A    between atoms: _9  and  _10
REMARK    8  A    between atoms: _14  and  _16
REMARK    9  A    between atoms: _16  and  _17
REMARK   10  A    between atoms: _16  and  _19
REMARK   11  A    between atoms: _19  and  _20
REMARK   12  A    between atoms: _26  and  _28
REMARK   13  A    between atoms: _28  and  _29
REMARK   14  A    between atoms: _28  and  _31
REMARK   15  A    between atoms: _31  and  _32
REMARK   16  A    between atoms: _37  and  _39
REMARK   17  A    between atoms: _39  and  _40
REMARK   18  A    between atoms: _39  and  _42
REMARK   19  A    between atoms: _42  and  _43
REMARK   20  A    between atoms: _43  and  _44
REMARK   21  A    between atoms: _47  and  _49
REMARK   22  A    between atoms: _49  and  _50
REMARK   23  A    between atoms: _49  and  _52
REMARK   24  A    between atoms: _52  and  _53
REMARK   25  A    between atoms: _53  and  _54
REMARK   26  A    between atoms: _59  and  _61
REMARK   27  A    between atoms: _61  and  _62
REMARK   28  A    between atoms: _61  and  _64
REMARK   29  A    between atoms: _64  and  _65
REMARK   30  A    between atoms: _68  and  _70
REMARK   31  A    between atoms: _70  and  _71
REMARK   32  A    between atoms: _70  and  _73
REMARK   33  A    between atoms: _76  and  _78
REMARK   34  A    between atoms: _78  and  _79
REMARK   35  A    between atoms: _78  and  _81
REMARK   36  A    between atoms: _81  and  _82
REMARK   37  A    between atoms: _82  and  _83
REMARK   38  A    between atoms: _86  and  _88
REMARK   39  A    between atoms: _88  and  _89
REMARK   40  A    between atoms: _88  and  _91
REMARK   41  A    between atoms: _91  and  _92
REMARK   42  A    between atoms: _97  and  _98
REMARK   43  A    between atoms: _100  and  _102
REMARK   44  A    between atoms: _102  and  _103
REMARK   45  A    between atoms: _102  and  _105
REMARK   46  A    between atoms: _105  and  _106
REMARK   47  A    between atoms: _109  and  _111
REMARK   48  A    between atoms: _111  and  _112
REMARK   49  A    between atoms: _114  and  _116
REMARK   50  A    between atoms: _116  and  _117
REMARK   51  A    between atoms: _116  and  _119
REMARK   52  A    between atoms: _119  and  _120
REMARK   53  A    between atoms: _123  and  _125
REMARK   54  A    between atoms: _125  and  _126
REMARK   55  A    between atoms: _129  and  _131
REMARK   56  A    between atoms: _131  and  _132
REMARK   57  A    between atoms: _131  and  _134
REMARK   58  A    between atoms: _134  and  _135
REMARK   59  A    between atoms: _140  and  _142
REMARK   60  A    between atoms: _142  and  _143
REMARK   61  A    between atoms: _142  and  _145
REMARK   62  A    between atoms: _148  and  _150
REMARK   63  A    between atoms: _150  and  _151
REMARK   64  A    between atoms: _150  and  _153
REMARK   65  A    between atoms: _153  and  _154
REMARK   66  A    between atoms: _160  and  _162
REMARK   67  A    between atoms: _162  and  _163
REMARK   68  A    between atoms: _162  and  _165
REMARK   69  A    between atoms: _165  and  _166
REMARK   70  A    between atoms: _166  and  _167
REMARK   71  A    between atoms: _167  and  _168
REMARK   72  A    between atoms: _177  and  _179
REMARK   73  A    between atoms: _179  and  _180
REMARK   74  A    between atoms: _179  and  _182
REMARK   75  A    between atoms: _182  and  _183
REMARK   76  A    between atoms: _186  and  _188
REMARK   77  A    between atoms: _188  and  _189
REMARK   78  A    between atoms: _188  and  _191
REMARK   79  A    between atoms: _191  and  _192
REMARK   80  A    between atoms: _195  and  _197
REMARK   81  A    between atoms: _197  and  _198
REMARK   82  A    between atoms: _201  and  _203
REMARK   83  A    between atoms: _203  and  _204
REMARK   84  A    between atoms: _207  and  _209
REMARK   85  A    between atoms: _209  and  _210
REMARK   86  A    between atoms: _209  and  _212
REMARK   87  A    between atoms: _212  and  _213
REMARK   88  A    between atoms: _213  and  _214
REMARK   89  A    between atoms: _214  and  _215
REMARK   90  A    between atoms: _224  and  _226
REMARK   91  A    between atoms: _226  and  _227
REMARK   92  A    between atoms: _230  and  _232
REMARK   93  A    between atoms: _232  and  _233
REMARK   94  A    between atoms: _232  and  _235
REMARK   95  A    between atoms: _235  and  _236
REMARK   96  A    between atoms: _241  and  _242
REMARK   97  A    between atoms: _244  and  _246
REMARK   98  A    between atoms: _246  and  _247
REMARK   99  A    between atoms: _246  and  _249
REMARK  100  A    between atoms: _249  and  _250
REMARK  101  A    between atoms: _253  and  _255
REMARK  102  A    between atoms: _255  and  _256
REMARK  103  A    between atoms: _255  and  _258
REMARK  104  A    between atoms: _258  and  _259
REMARK  105  A    between atoms: _263  and  _264
REMARK  106  A    between atoms: _270  and  _271
REMARK  107  A    between atoms: _276  and  _278
REMARK  108  A    between atoms: _278  and  _279
REMARK  109  A    between atoms: _278  and  _281
REMARK  110  A    between atoms: _281  and  _282
REMARK  111  A    between atoms: _287  and  _288
REMARK  112  A    between atoms: _290  and  _292
REMARK  113  A    between atoms: _292  and  _293
REMARK  114  A    between atoms: _292  and  _295
REMARK  115  A    between atoms: _295  and  _296
REMARK  116  A    between atoms: _299  and  _301
REMARK  117  A    between atoms: _301  and  _302
REMARK  118  A    between atoms: _305  and  _307
REMARK  119  A    between atoms: _307  and  _308
REMARK  120  A    between atoms: _307  and  _310
REMARK  121  A    between atoms: _310  and  _311
REMARK                            x       y       z     vdW  Elec       q    Type
REMARK                         _______ _______ _______ _____ _____    ______ ____
ROOT
ATOM      1  O   HOH     1      20.138 -19.548 -18.881  0.00  0.00    +0.000 OA
ENDROOT
TORSDOF 0
REMARK  Name = ../refined-set-2016/3mam/3mam_pocket.pdb
REMARK  121 active torsions:
REMARK  status: ('A' for Active; 'I' for Inactive)
REMARK    1  A    between atoms: _1  and  _3
REMARK    2  A    between atoms: _3  and  _4
REMARK    3  A    between atoms: _3  and  _6
REMARK    4  A    between atoms: _6  and  _7
REMARK    5  A    between atoms: _7  and  _8
REMARK    6  A    between atoms: _8  and  _9
REMARK    7  A    between atoms: _9  and  _10
REMARK    8  A    between atoms: _14  and  _16
REMARK    9  A    between atoms: _16  and  _17
REMARK   10  A    between atoms: _16  and  _19
REMARK   11  A    between atoms: _19  and  _20
REMARK   12  A    between atoms: _26  and  _28
REMARK   13  A    between atoms: _28  and  _29
REMARK   14  A    between atoms: _28  and  _31
REMARK   15  A    between atoms: _31  and  _32
REMARK   16  A    between atoms: _37  and  _39
REMARK   17  A    between atoms: _39  and  _40
REMARK   18  A    between atoms: _39  and  _42
REMARK   19  A    between atoms: _42  and  _43
REMARK   20  A    between atoms: _43  and  _44
REMARK   21  A    between atoms: _47  and  _49
REMARK   22  A    between atoms: _49  and  _50
REMARK   23  A    between atoms: _49  and  _52
REMARK   24  A    between atoms: _52  and  _53
REMARK   25  A    between atoms: _53  and  _54
REMARK   26  A    between atoms: _59  and  _61
REMARK   27  A    between atoms: _61  and  _62
REMARK   28  A    between atoms: _61  and  _64
REMARK   29  A    between atoms: _64  and  _65
REMARK   30  A    between atoms: _68  and  _70
REMARK   31  A    between atoms: _70  and  _71
REMARK   32  A    between atoms: _70  and  _73
REMARK   33  A    between atoms: _76  and  _78
REMARK   34  A    between atoms: _78  and  _79
REMARK   35  A    between atoms: _78  and  _81
REMARK   36  A    between atoms: _81  and  _82
REMARK   37  A    between atoms: _82  and  _83
REMARK   38  A    between atoms: _86  and  _88
REMARK   39  A    between atoms: _88  and  _89
REMARK   40  A    between atoms: _88  and  _91
REMARK   41  A    between atoms: _91  and  _92
REMARK   42  A    between atoms: _97  and  _98
REMARK   43  A    between atoms: _100  and  _102
REMARK   44  A    between atoms: _102  and  _103
REMARK   45  A    between atoms: _102  and  _105
REMARK   46  A    between atoms: _105  and  _106
REMARK   47  A    between atoms: _109  and  _111
REMARK   48  A    between atoms: _111  and  _112
REMARK   49  A    between atoms: _114  and  _116
REMARK   50  A    between atoms: _116  and  _117
REMARK   51  A    between atoms: _116  and  _119
REMARK   52  A    between atoms: _119  and  _120
REMARK   53  A    between atoms: _123  and  _125
REMARK   54  A    between atoms: _125  and  _126
REMARK   55  A    between atoms: _129  and  _131
REMARK   56  A    between atoms: _131  and  _132
REMARK   57  A    between atoms: _131  and  _134
REMARK   58  A    between atoms: _134  and  _135
REMARK   59  A    between atoms: _140  and  _142
REMARK   60  A    between atoms: _142  and  _143
REMARK   61  A    between atoms: _142  and  _145
REMARK   62  A    between atoms: _148  and  _150
REMARK   63  A    between atoms: _150  and  _151
REMARK   64  A    between atoms: _150  and  _153
REMARK   65  A    between atoms: _153  and  _154
REMARK   66  A    between atoms: _160  and  _162
REMARK   67  A    between atoms: _162  and  _163
REMARK   68  A    between atoms: _162  and  _165
REMARK   69  A    between atoms: _165  and  _166
REMARK   70  A    between atoms: _166  and  _167
REMARK   71  A    between atoms: _167  and  _168
REMARK   72  A    between atoms: _177  and  _179
REMARK   73  A    between atoms: _179  and  _180
REMARK   74  A    between atoms: _179  and  _182
REMARK   75  A    between atoms: _182  and  _183
REMARK   76  A    between atoms: _186  and  _188
REMARK   77  A    between atoms: _188  and  _189
REMARK   78  A    between atoms: _188  and  _191
REMARK   79  A    between atoms: _191  and  _192
REMARK   80  A    between atoms: _195  and  _197
REMARK   81  A    between atoms: _197  and  _198
REMARK   82  A    between atoms: _201  and  _203
REMARK   83  A    between atoms: _203  and  _204
REMARK   84  A    between atoms: _207  and  _209
REMARK   85  A    between atoms: _209  and  _210
REMARK   86  A    between atoms: _209  and  _212
REMARK   87  A    between atoms: _212  and  _213
REMARK   88  A    between atoms: _213  and  _214
REMARK   89  A    between atoms: _214  and  _215
REMARK   90  A    between atoms: _224  and  _226
REMARK   91  A    between atoms: _226  and  _227
REMARK   92  A    between atoms: _230  and  _232
REMARK   93  A    between atoms: _232  and  _233
REMARK   94  A    between atoms: _232  and  _235
REMARK   95  A    between atoms: _235  and  _236
REMARK   96  A    between atoms: _241  and  _242
REMARK   97  A    between atoms: _244  and  _246
REMARK   98  A    between atoms: _246  and  _247
REMARK   99  A    between atoms: _246  and  _249
REMARK  100  A    between atoms: _249  and  _250
REMARK  101  A    between atoms: _253  and  _255
REMARK  102  A    between atoms: _255  and  _256
REMARK  103  A    between atoms: _255  and  _258
REMARK  104  A    between atoms: _258  and  _259
REMARK  105  A    between atoms: _263  and  _264
REMARK  106  A    between atoms: _270  and  _271
REMARK  107  A    between atoms: _276  and  _278
REMARK  108  A    between atoms: _278  and  _279
REMARK  109  A    between atoms: _278  and  _281
REMARK  110  A    between atoms: _281  and  _282
REMARK  111  A    between atoms: _287  and  _288
REMARK  112  A    between atoms: _290  and  _292
REMARK  113  A    between atoms: _292  and  _293
REMARK  114  A    between atoms: _292  and  _295
REMARK  115  A    between atoms: _295  and  _296
REMARK  116  A    between atoms: _299  and  _301
REMARK  117  A    between atoms: _301  and  _302
REMARK  118  A    between atoms: _305  and  _307
REMARK  119  A    between atoms: _307  and  _308
REMARK  120  A    between atoms: _307  and  _310
REMARK  121  A    between atoms: _310  and  _311
REMARK                            x       y       z     vdW  Elec       q    Type
REMARK                         _______ _______ _______ _____ _____    ______ ____
ROOT
ATOM      1  O   HOH     1      28.094 -18.896 -12.159  0.00  0.00    +0.000 OA
ENDROOT
TORSDOF 0
REMARK  Name = ../refined-set-2016/3mam/3mam_pocket.pdb
REMARK  121 active torsions:
REMARK  status: ('A' for Active; 'I' for Inactive)
REMARK    1  A    between atoms: _1  and  _3
REMARK    2  A    between atoms: _3  and  _4
REMARK    3  A    between atoms: _3  and  _6
REMARK    4  A    between atoms: _6  and  _7
REMARK    5  A    between atoms: _7  and  _8
REMARK    6  A    between atoms: _8  and  _9
REMARK    7  A    between atoms: _9  and  _10
REMARK    8  A    between atoms: _14  and  _16
REMARK    9  A    between atoms: _16  and  _17
REMARK   10  A    between atoms: _16  and  _19
REMARK   11  A    between atoms: _19  and  _20
REMARK   12  A    between atoms: _26  and  _28
REMARK   13  A    between atoms: _28  and  _29
REMARK   14  A    between atoms: _28  and  _31
REMARK   15  A    between atoms: _31  and  _32
REMARK   16  A    between atoms: _37  and  _39
REMARK   17  A    between atoms: _39  and  _40
REMARK   18  A    between atoms: _39  and  _42
REMARK   19  A    between atoms: _42  and  _43
REMARK   20  A    between atoms: _43  and  _44
REMARK   21  A    between atoms: _47  and  _49
REMARK   22  A    between atoms: _49  and  _50
REMARK   23  A    between atoms: _49  and  _52
REMARK   24  A    between atoms: _52  and  _53
REMARK   25  A    between atoms: _53  and  _54
REMARK   26  A    between atoms: _59  and  _61
REMARK   27  A    between atoms: _61  and  _62
REMARK   28  A    between atoms: _61  and  _64
REMARK   29  A    between atoms: _64  and  _65
REMARK   30  A    between atoms: _68  and  _70
REMARK   31  A    between atoms: _70  and  _71
REMARK   32  A    between atoms: _70  and  _73
REMARK   33  A    between atoms: _76  and  _78
REMARK   34  A    between atoms: _78  and  _79
REMARK   35  A    between atoms: _78  and  _81
REMARK   36  A    between atoms: _81  and  _82
REMARK   37  A    between atoms: _82  and  _83
REMARK   38  A    between atoms: _86  and  _88
REMARK   39  A    between atoms: _88  and  _89
REMARK   40  A    between atoms: _88  and  _91
REMARK   41  A    between atoms: _91  and  _92
REMARK   42  A    between atoms: _97  and  _98
REMARK   43  A    between atoms: _100  and  _102
REMARK   44  A    between atoms: _102  and  _103
REMARK   45  A    between atoms: _102  and  _105
REMARK   46  A    between atoms: _105  and  _106
REMARK   47  A    between atoms: _109  and  _111
REMARK   48  A    between atoms: _111  and  _112
REMARK   49  A    between atoms: _114  and  _116
REMARK   50  A    between atoms: _116  and  _117
REMARK   51  A    between atoms: _116  and  _119
REMARK   52  A    between atoms: _119  and  _120
REMARK   53  A    between atoms: _123  and  _125
REMARK   54  A    between atoms: _125  and  _126
REMARK   55  A    between atoms: _129  and  _131
REMARK   56  A    between atoms: _131  and  _132
REMARK   57  A    between atoms: _131  and  _134
REMARK   58  A    between atoms: _134  and  _135
REMARK   59  A    between atoms: _140  and  _142
REMARK   60  A    between atoms: _142  and  _143
REMARK   61  A    between atoms: _142  and  _145
REMARK   62  A    between atoms: _148  and  _150
REMARK   63  A    between atoms: _150  and  _151
REMARK   64  A    between atoms: _150  and  _153
REMARK   65  A    between atoms: _153  and  _154
REMARK   66  A    between atoms: _160  and  _162
REMARK   67  A    between atoms: _162  and  _163
REMARK   68  A    between atoms: _162  and  _165
REMARK   69  A    between atoms: _165  and  _166
REMARK   70  A    between atoms: _166  and  _167
REMARK   71  A    between atoms: _167  and  _168
REMARK   72  A    between atoms: _177  and  _179
REMARK   73  A    between atoms: _179  and  _180
REMARK   74  A    between atoms: _179  and  _182
REMARK   75  A    between atoms: _182  and  _183
REMARK   76  A    between atoms: _186  and  _188
REMARK   77  A    between atoms: _188  and  _189
REMARK   78  A    between atoms: _188  and  _191
REMARK   79  A    between atoms: _191  and  _192
REMARK   80  A    between atoms: _195  and  _197
REMARK   81  A    between atoms: _197  and  _198
REMARK   82  A    between atoms: _201  and  _203
REMARK   83  A    between atoms: _203  and  _204
REMARK   84  A    between atoms: _207  and  _209
REMARK   85  A    between atoms: _209  and  _210
REMARK   86  A    between atoms: _209  and  _212
REMARK   87  A    between atoms: _212  and  _213
REMARK   88  A    between atoms: _213  and  _214
REMARK   89  A    between atoms: _214  and  _215
REMARK   90  A    between atoms: _224  and  _226
REMARK   91  A    between atoms: _226  and  _227
REMARK   92  A    between atoms: _230  and  _232
REMARK   93  A    between atoms: _232  and  _233
REMARK   94  A    between atoms: _232  and  _235
REMARK   95  A    between atoms: _235  and  _236
REMARK   96  A    between atoms: _241  and  _242
REMARK   97  A    between atoms: _244  and  _246
REMARK   98  A    between atoms: _246  and  _247
REMARK   99  A    between atoms: _246  and  _249
REMARK  100  A    between atoms: _249  and  _250
REMARK  101  A    between atoms: _253  and  _255
REMARK  102  A    between atoms: _255  and  _256
REMARK  103  A    between atoms: _255  and  _258
REMARK  104  A    between atoms: _258  and  _259
REMARK  105  A    between atoms: _263  and  _264
REMARK  106  A    between atoms: _270  and  _271
REMARK  107  A    between atoms: _276  and  _278
REMARK  108  A    between atoms: _278  and  _279
REMARK  109  A    between atoms: _278  and  _281
REMARK  110  A    between atoms: _281  and  _282
REMARK  111  A    between atoms: _287  and  _288
REMARK  112  A    between atoms: _290  and  _292
REMARK  113  A    between atoms: _292  and  _293
REMARK  114  A    between atoms: _292  and  _295
REMARK  115  A    between atoms: _295  and  _296
REMARK  116  A    between atoms: _299  and  _301
REMARK  117  A    between atoms: _301  and  _302
REMARK  118  A    between atoms: _305  and  _307
REMARK  119  A    between atoms: _307  and  _308
REMARK  120  A    between atoms: _307  and  _310
REMARK  121  A    between atoms: _310  and  _311
REMARK                            x       y       z     vdW  Elec       q    Type
REMARK                         _______ _______ _______ _____ _____    ______ ____
ROOT
ATOM      1  O   HOH     1      20.807 -26.257 -11.250  0.00  0.00    +0.000 OA
ENDROOT
TORSDOF 0
REMARK  Name = ../refined-set-2016/3mam/3mam_pocket.pdb
REMARK  121 active torsions:
REMARK  status: ('A' for Active; 'I' for Inactive)
REMARK    1  A    between atoms: _1  and  _3
REMARK    2  A    between atoms: _3  and  _4
REMARK    3  A    between atoms: _3  and  _6
REMARK    4  A    between atoms: _6  and  _7
REMARK    5  A    between atoms: _7  and  _8
REMARK    6  A    between atoms: _8  and  _9
REMARK    7  A    between atoms: _9  and  _10
REMARK    8  A    between atoms: _14  and  _16
REMARK    9  A    between atoms: _16  and  _17
REMARK   10  A    between atoms: _16  and  _19
REMARK   11  A    between atoms: _19  and  _20
REMARK   12  A    between atoms: _26  and  _28
REMARK   13  A    between atoms: _28  and  _29
REMARK   14  A    between atoms: _28  and  _31
REMARK   15  A    between atoms: _31  and  _32
REMARK   16  A    between atoms: _37  and  _39
REMARK   17  A    between atoms: _39  and  _40
REMARK   18  A    between atoms: _39  and  _42
REMARK   19  A    between atoms: _42  and  _43
REMARK   20  A    between atoms: _43  and  _44
REMARK   21  A    between atoms: _47  and  _49
REMARK   22  A    between atoms: _49  and  _50
REMARK   23  A    between atoms: _49  and  _52
REMARK   24  A    between atoms: _52  and  _53
REMARK   25  A    between atoms: _53  and  _54
REMARK   26  A    between atoms: _59  and  _61
REMARK   27  A    between atoms: _61  and  _62
REMARK   28  A    between atoms: _61  and  _64
REMARK   29  A    between atoms: _64  and  _65
REMARK   30  A    between atoms: _68  and  _70
REMARK   31  A    between atoms: _70  and  _71
REMARK   32  A    between atoms: _70  and  _73
REMARK   33  A    between atoms: _76  and  _78
REMARK   34  A    between atoms: _78  and  _79
REMARK   35  A    between atoms: _78  and  _81
REMARK   36  A    between atoms: _81  and  _82
REMARK   37  A    between atoms: _82  and  _83
REMARK   38  A    between atoms: _86  and  _88
REMARK   39  A    between atoms: _88  and  _89
REMARK   40  A    between atoms: _88  and  _91
REMARK   41  A    between atoms: _91  and  _92
REMARK   42  A    between atoms: _97  and  _98
REMARK   43  A    between atoms: _100  and  _102
REMARK   44  A    between atoms: _102  and  _103
REMARK   45  A    between atoms: _102  and  _105
REMARK   46  A    between atoms: _105  and  _106
REMARK   47  A    between atoms: _109  and  _111
REMARK   48  A    between atoms: _111  and  _112
REMARK   49  A    between atoms: _114  and  _116
REMARK   50  A    between atoms: _116  and  _117
REMARK   51  A    between atoms: _116  and  _119
REMARK   52  A    between atoms: _119  and  _120
REMARK   53  A    between atoms: _123  and  _125
REMARK   54  A    between atoms: _125  and  _126
REMARK   55  A    between atoms: _129  and  _131
REMARK   56  A    between atoms: _131  and  _132
REMARK   57  A    between atoms: _131  and  _134
REMARK   58  A    between atoms: _134  and  _135
REMARK   59  A    between atoms: _140  and  _142
REMARK   60  A    between atoms: _142  and  _143
REMARK   61  A    between atoms: _142  and  _145
REMARK   62  A    between atoms: _148  and  _150
REMARK   63  A    between atoms: _150  and  _151
REMARK   64  A    between atoms: _150  and  _153
REMARK   65  A    between atoms: _153  and  _154
REMARK   66  A    between atoms: _160  and  _162
REMARK   67  A    between atoms: _162  and  _163
REMARK   68  A    between atoms: _162  and  _165
REMARK   69  A    between atoms: _165  and  _166
REMARK   70  A    between atoms: _166  and  _167
REMARK   71  A    between atoms: _167  and  _168
REMARK   72  A    between atoms: _177  and  _179
REMARK   73  A    between atoms: _179  and  _180
REMARK   74  A    between atoms: _179  and  _182
REMARK   75  A    between atoms: _182  and  _183
REMARK   76  A    between atoms: _186  and  _188
REMARK   77  A    between atoms: _188  and  _189
REMARK   78  A    between atoms: _188  and  _191
REMARK   79  A    between atoms: _191  and  _192
REMARK   80  A    between atoms: _195  and  _197
REMARK   81  A    between atoms: _197  and  _198
REMARK   82  A    between atoms: _201  and  _203
REMARK   83  A    between atoms: _203  and  _204
REMARK   84  A    between atoms: _207  and  _209
REMARK   85  A    between atoms: _209  and  _210
REMARK   86  A    between atoms: _209  and  _212
REMARK   87  A    between atoms: _212  and  _213
REMARK   88  A    between atoms: _213  and  _214
REMARK   89  A    between atoms: _214  and  _215
REMARK   90  A    between atoms: _224  and  _226
REMARK   91  A    between atoms: _226  and  _227
REMARK   92  A    between atoms: _230  and  _232
REMARK   93  A    between atoms: _232  and  _233
REMARK   94  A    between atoms: _232  and  _235
REMARK   95  A    between atoms: _235  and  _236
REMARK   96  A    between atoms: _241  and  _242
REMARK   97  A    between atoms: _244  and  _246
REMARK   98  A    between atoms: _246  and  _247
REMARK   99  A    between atoms: _246  and  _249
REMARK  100  A    between atoms: _249  and  _250
REMARK  101  A    between atoms: _253  and  _255
REMARK  102  A    between atoms: _255  and  _256
REMARK  103  A    between atoms: _255  and  _258
REMARK  104  A    between atoms: _258  and  _259
REMARK  105  A    between atoms: _263  and  _264
REMARK  106  A    between atoms: _270  and  _271
REMARK  107  A    between atoms: _276  and  _278
REMARK  108  A    between atoms: _278  and  _279
REMARK  109  A    between atoms: _278  and  _281
REMARK  110  A    between atoms: _281  and  _282
REMARK  111  A    between atoms: _287  and  _288
REMARK  112  A    between atoms: _290  and  _292
REMARK  113  A    between atoms: _292  and  _293
REMARK  114  A    between atoms: _292  and  _295
REMARK  115  A    between atoms: _295  and  _296
REMARK  116  A    between atoms: _299  and  _301
REMARK  117  A    between atoms: _301  and  _302
REMARK  118  A    between atoms: _305  and  _307
REMARK  119  A    between atoms: _307  and  _308
REMARK  120  A    between atoms: _307  and  _310
REMARK  121  A    between atoms: _310  and  _311
REMARK                            x       y       z     vdW  Elec       q    Type
REMARK                         _______ _______ _______ _____ _____    ______ ____
ROOT
ATOM      1  O   HOH     1      26.082 -22.638  -6.343  0.00  0.00    +0.000 OA
ENDROOT
TORSDOF 0
REMARK  Name = ../refined-set-2016/3mam/3mam_pocket.pdb
REMARK  121 active torsions:
REMARK  status: ('A' for Active; 'I' for Inactive)
REMARK    1  A    between atoms: _1  and  _3
REMARK    2  A    between atoms: _3  and  _4
REMARK    3  A    between atoms: _3  and  _6
REMARK    4  A    between atoms: _6  and  _7
REMARK    5  A    between atoms: _7  and  _8
REMARK    6  A    between atoms: _8  and  _9
REMARK    7  A    between atoms: _9  and  _10
REMARK    8  A    between atoms: _14  and  _16
REMARK    9  A    between atoms: _16  and  _17
REMARK   10  A    between atoms: _16  and  _19
REMARK   11  A    between atoms: _19  and  _20
REMARK   12  A    between atoms: _26  and  _28
REMARK   13  A    between atoms: _28  and  _29
REMARK   14  A    between atoms: _28  and  _31
REMARK   15  A    between atoms: _31  and  _32
REMARK   16  A    between atoms: _37  and  _39
REMARK   17  A    between atoms: _39  and  _40
REMARK   18  A    between atoms: _39  and  _42
REMARK   19  A    between atoms: _42  and  _43
REMARK   20  A    between atoms: _43  and  _44
REMARK   21  A    between atoms: _47  and  _49
REMARK   22  A    between atoms: _49  and  _50
REMARK   23  A    between atoms: _49  and  _52
REMARK   24  A    between atoms: _52  and  _53
REMARK   25  A    between atoms: _53  and  _54
REMARK   26  A    between atoms: _59  and  _61
REMARK   27  A    between atoms: _61  and  _62
REMARK   28  A    between atoms: _61  and  _64
REMARK   29  A    between atoms: _64  and  _65
REMARK   30  A    between atoms: _68  and  _70
REMARK   31  A    between atoms: _70  and  _71
REMARK   32  A    between atoms: _70  and  _73
REMARK   33  A    between atoms: _76  and  _78
REMARK   34  A    between atoms: _78  and  _79
REMARK   35  A    between atoms: _78  and  _81
REMARK   36  A    between atoms: _81  and  _82
REMARK   37  A    between atoms: _82  and  _83
REMARK   38  A    between atoms: _86  and  _88
REMARK   39  A    between atoms: _88  and  _89
REMARK   40  A    between atoms: _88  and  _91
REMARK   41  A    between atoms: _91  and  _92
REMARK   42  A    between atoms: _97  and  _98
REMARK   43  A    between atoms: _100  and  _102
REMARK   44  A    between atoms: _102  and  _103
REMARK   45  A    between atoms: _102  and  _105
REMARK   46  A    between atoms: _105  and  _106
REMARK   47  A    between atoms: _109  and  _111
REMARK   48  A    between atoms: _111  and  _112
REMARK   49  A    between atoms: _114  and  _116
REMARK   50  A    between atoms: _116  and  _117
REMARK   51  A    between atoms: _116  and  _119
REMARK   52  A    between atoms: _119  and  _120
REMARK   53  A    between atoms: _123  and  _125
REMARK   54  A    between atoms: _125  and  _126
REMARK   55  A    between atoms: _129  and  _131
REMARK   56  A    between atoms: _131  and  _132
REMARK   57  A    between atoms: _131  and  _134
REMARK   58  A    between atoms: _134  and  _135
REMARK   59  A    between atoms: _140  and  _142
REMARK   60  A    between atoms: _142  and  _143
REMARK   61  A    between atoms: _142  and  _145
REMARK   62  A    between atoms: _148  and  _150
REMARK   63  A    between atoms: _150  and  _151
REMARK   64  A    between atoms: _150  and  _153
REMARK   65  A    between atoms: _153  and  _154
REMARK   66  A    between atoms: _160  and  _162
REMARK   67  A    between atoms: _162  and  _163
REMARK   68  A    between atoms: _162  and  _165
REMARK   69  A    between atoms: _165  and  _166
REMARK   70  A    between atoms: _166  and  _167
REMARK   71  A    between atoms: _167  and  _168
REMARK   72  A    between atoms: _177  and  _179
REMARK   73  A    between atoms: _179  and  _180
REMARK   74  A    between atoms: _179  and  _182
REMARK   75  A    between atoms: _182  and  _183
REMARK   76  A    between atoms: _186  and  _188
REMARK   77  A    between atoms: _188  and  _189
REMARK   78  A    between atoms: _188  and  _191
REMARK   79  A    between atoms: _191  and  _192
REMARK   80  A    between atoms: _195  and  _197
REMARK   81  A    between atoms: _197  and  _198
REMARK   82  A    between atoms: _201  and  _203
REMARK   83  A    between atoms: _203  and  _204
REMARK   84  A    between atoms: _207  and  _209
REMARK   85  A    between atoms: _209  and  _210
REMARK   86  A    between atoms: _209  and  _212
REMARK   87  A    between atoms: _212  and  _213
REMARK   88  A    between atoms: _213  and  _214
REMARK   89  A    between atoms: _214  and  _215
REMARK   90  A    between atoms: _224  and  _226
REMARK   91  A    between atoms: _226  and  _227
REMARK   92  A    between atoms: _230  and  _232
REMARK   93  A    between atoms: _232  and  _233
REMARK   94  A    between atoms: _232  and  _235
REMARK   95  A    between atoms: _235  and  _236
REMARK   96  A    between atoms: _241  and  _242
REMARK   97  A    between atoms: _244  and  _246
REMARK   98  A    between atoms: _246  and  _247
REMARK   99  A    between atoms: _246  and  _249
REMARK  100  A    between atoms: _249  and  _250
REMARK  101  A    between atoms: _253  and  _255
REMARK  102  A    between atoms: _255  and  _256
REMARK  103  A    between atoms: _255  and  _258
REMARK  104  A    between atoms: _258  and  _259
REMARK  105  A    between atoms: _263  and  _264
REMARK  106  A    between atoms: _270  and  _271
REMARK  107  A    between atoms: _276  and  _278
REMARK  108  A    between atoms: _278  and  _279
REMARK  109  A    between atoms: _278  and  _281
REMARK  110  A    between atoms: _281  and  _282
REMARK  111  A    between atoms: _287  and  _288
REMARK  112  A    between atoms: _290  and  _292
REMARK  113  A    between atoms: _292  and  _293
REMARK  114  A    between atoms: _292  and  _295
REMARK  115  A    between atoms: _295  and  _296
REMARK  116  A    between atoms: _299  and  _301
REMARK  117  A    between atoms: _301  and  _302
REMARK  118  A    between atoms: _305  and  _307
REMARK  119  A    between atoms: _307  and  _308
REMARK  120  A    between atoms: _307  and  _310
REMARK  121  A    between atoms: _310  and  _311
REMARK                            x       y       z     vdW  Elec       q    Type
REMARK                         _______ _______ _______ _____ _____    ______ ____
ROOT
ATOM      1  O   HOH     1      26.993 -16.663 -12.591  0.00  0.00    +0.000 OA
ENDROOT
TORSDOF 0
REMARK  Name = ../refined-set-2016/3mam/3mam_pocket.pdb
REMARK  121 active torsions:
REMARK  status: ('A' for Active; 'I' for Inactive)
REMARK    1  A    between atoms: _1  and  _3
REMARK    2  A    between atoms: _3  and  _4
REMARK    3  A    between atoms: _3  and  _6
REMARK    4  A    between atoms: _6  and  _7
REMARK    5  A    between atoms: _7  and  _8
REMARK    6  A    between atoms: _8  and  _9
REMARK    7  A    between atoms: _9  and  _10
REMARK    8  A    between atoms: _14  and  _16
REMARK    9  A    between atoms: _16  and  _17
REMARK   10  A    between atoms: _16  and  _19
REMARK   11  A    between atoms: _19  and  _20
REMARK   12  A    between atoms: _26  and  _28
REMARK   13  A    between atoms: _28  and  _29
REMARK   14  A    between atoms: _28  and  _31
REMARK   15  A    between atoms: _31  and  _32
REMARK   16  A    between atoms: _37  and  _39
REMARK   17  A    between atoms: _39  and  _40
REMARK   18  A    between atoms: _39  and  _42
REMARK   19  A    between atoms: _42  and  _43
REMARK   20  A    between atoms: _43  and  _44
REMARK   21  A    between atoms: _47  and  _49
REMARK   22  A    between atoms: _49  and  _50
REMARK   23  A    between atoms: _49  and  _52
REMARK   24  A    between atoms: _52  and  _53
REMARK   25  A    between atoms: _53  and  _54
REMARK   26  A    between atoms: _59  and  _61
REMARK   27  A    between atoms: _61  and  _62
REMARK   28  A    between atoms: _61  and  _64
REMARK   29  A    between atoms: _64  and  _65
REMARK   30  A    between atoms: _68  and  _70
REMARK   31  A    between atoms: _70  and  _71
REMARK   32  A    between atoms: _70  and  _73
REMARK   33  A    between atoms: _76  and  _78
REMARK   34  A    between atoms: _78  and  _79
REMARK   35  A    between atoms: _78  and  _81
REMARK   36  A    between atoms: _81  and  _82
REMARK   37  A    between atoms: _82  and  _83
REMARK   38  A    between atoms: _86  and  _88
REMARK   39  A    between atoms: _88  and  _89
REMARK   40  A    between atoms: _88  and  _91
REMARK   41  A    between atoms: _91  and  _92
REMARK   42  A    between atoms: _97  and  _98
REMARK   43  A    between atoms: _100  and  _102
REMARK   44  A    between atoms: _102  and  _103
REMARK   45  A    between atoms: _102  and  _105
REMARK   46  A    between atoms: _105  and  _106
REMARK   47  A    between atoms: _109  and  _111
REMARK   48  A    between atoms: _111  and  _112
REMARK   49  A    between atoms: _114  and  _116
REMARK   50  A    between atoms: _116  and  _117
REMARK   51  A    between atoms: _116  and  _119
REMARK   52  A    between atoms: _119  and  _120
REMARK   53  A    between atoms: _123  and  _125
REMARK   54  A    between atoms: _125  and  _126
REMARK   55  A    between atoms: _129  and  _131
REMARK   56  A    between atoms: _131  and  _132
REMARK   57  A    between atoms: _131  and  _134
REMARK   58  A    between atoms: _134  and  _135
REMARK   59  A    between atoms: _140  and  _142
REMARK   60  A    between atoms: _142  and  _143
REMARK   61  A    between atoms: _142  and  _145
REMARK   62  A    between atoms: _148  and  _150
REMARK   63  A    between atoms: _150  and  _151
REMARK   64  A    between atoms: _150  and  _153
REMARK   65  A    between atoms: _153  and  _154
REMARK   66  A    between atoms: _160  and  _162
REMARK   67  A    between atoms: _162  and  _163
REMARK   68  A    between atoms: _162  and  _165
REMARK   69  A    between atoms: _165  and  _166
REMARK   70  A    between atoms: _166  and  _167
REMARK   71  A    between atoms: _167  and  _168
REMARK   72  A    between atoms: _177  and  _179
REMARK   73  A    between atoms: _179  and  _180
REMARK   74  A    between atoms: _179  and  _182
REMARK   75  A    between atoms: _182  and  _183
REMARK   76  A    between atoms: _186  and  _188
REMARK   77  A    between atoms: _188  and  _189
REMARK   78  A    between atoms: _188  and  _191
REMARK   79  A    between atoms: _191  and  _192
REMARK   80  A    between atoms: _195  and  _197
REMARK   81  A    between atoms: _197  and  _198
REMARK   82  A    between atoms: _201  and  _203
REMARK   83  A    between atoms: _203  and  _204
REMARK   84  A    between atoms: _207  and  _209
REMARK   85  A    between atoms: _209  and  _210
REMARK   86  A    between atoms: _209  and  _212
REMARK   87  A    between atoms: _212  and  _213
REMARK   88  A    between atoms: _213  and  _214
REMARK   89  A    between atoms: _214  and  _215
REMARK   90  A    between atoms: _224  and  _226
REMARK   91  A    between atoms: _226  and  _227
REMARK   92  A    between atoms: _230  and  _232
REMARK   93  A    between atoms: _232  and  _233
REMARK   94  A    between atoms: _232  and  _235
REMARK   95  A    between atoms: _235  and  _236
REMARK   96  A    between atoms: _241  and  _242
REMARK   97  A    between atoms: _244  and  _246
REMARK   98  A    between atoms: _246  and  _247
REMARK   99  A    between atoms: _246  and  _249
REMARK  100  A    between atoms: _249  and  _250
REMARK  101  A    between atoms: _253  and  _255
REMARK  102  A    between atoms: _255  and  _256
REMARK  103  A    between atoms: _255  and  _258
REMARK  104  A    between atoms: _258  and  _259
REMARK  105  A    between atoms: _263  and  _264
REMARK  106  A    between atoms: _270  and  _271
REMARK  107  A    between atoms: _276  and  _278
REMARK  108  A    between atoms: _278  and  _279
REMARK  109  A    between atoms: _278  and  _281
REMARK  110  A    between atoms: _281  and  _282
REMARK  111  A    between atoms: _287  and  _288
REMARK  112  A    between atoms: _290  and  _292
REMARK  113  A    between atoms: _292  and  _293
REMARK  114  A    between atoms: _292  and  _295
REMARK  115  A    between atoms: _295  and  _296
REMARK  116  A    between atoms: _299  and  _301
REMARK  117  A    between atoms: _301  and  _302
REMARK  118  A    between atoms: _305  and  _307
REMARK  119  A    between atoms: _307  and  _308
REMARK  120  A    between atoms: _307  and  _310
REMARK  121  A    between atoms: _310  and  _311
REMARK                            x       y       z     vdW  Elec       q    Type
REMARK                         _______ _______ _______ _____ _____    ______ ____
ROOT
ATOM      1  O   HOH     1      27.269 -21.139 -10.253  0.00  0.00    +0.000 OA
ENDROOT
TORSDOF 0
