REMARK  Name = ../refined-set-2016/5c1w/5c1w_pocket.pdb
REMARK  131 active torsions:
REMARK  status: ('A' for Active; 'I' for Inactive)
REMARK    1  A    between atoms: _1  and  _3
REMARK    2  A    between atoms: _3  and  _4
REMARK    3  A    between atoms: _3  and  _6
REMARK    4  A    between atoms: _6  and  _7
REMARK    5  A    between atoms: _12  and  _13
REMARK    6  A    between atoms: _15  and  _17
REMARK    7  A    between atoms: _17  and  _18
REMARK    8  A    between atoms: _17  and  _20
REMARK    9  A    between atoms: _20  and  _21
REMARK   10  A    between atoms: _26  and  _28
REMARK   11  A    between atoms: _28  and  _29
REMARK   12  A    between atoms: _28  and  _31
REMARK   13  A    between atoms: _31  and  _32
REMARK   14  A    between atoms: _36  and  ZN_323
REMARK   15  A    between atoms: _37  and  _39
REMARK   16  A    between atoms: _39  and  _40
REMARK   17  A    between atoms: _39  and  _42
REMARK   18  A    between atoms: _42  and  _43
REMARK   19  A    between atoms: _46  and  _48
REMARK   20  A    between atoms: _48  and  _49
REMARK   21  A    between atoms: _48  and  _51
REMARK   22  A    between atoms: _51  and  _52
REMARK   23  A    between atoms: _55  and  _57
REMARK   24  A    between atoms: _57  and  _58
REMARK   25  A    between atoms: _57  and  _60
REMARK   26  A    between atoms: _60  and  _61
REMARK   27  A    between atoms: _64  and  _66
REMARK   28  A    between atoms: _66  and  _67
REMARK   29  A    between atoms: _66  and  _69
REMARK   30  A    between atoms: _71  and  _73
REMARK   31  A    between atoms: _73  and  _74
REMARK   32  A    between atoms: _73  and  _76
REMARK   33  A    between atoms: _76  and  _77
REMARK   34  A    between atoms: _77  and  _78
REMARK   35  A    between atoms: _78  and  ZN_323
REMARK   36  A    between atoms: _80  and  _82
REMARK   37  A    between atoms: _82  and  _83
REMARK   38  A    between atoms: _82  and  _85
REMARK   39  A    between atoms: _85  and  _86
REMARK   40  A    between atoms: _89  and  _91
REMARK   41  A    between atoms: _91  and  _92
REMARK   42  A    between atoms: _91  and  _94
REMARK   43  A    between atoms: _96  and  _98
REMARK   44  A    between atoms: _98  and  _99
REMARK   45  A    between atoms: _98  and  _101
REMARK   46  A    between atoms: _101  and  _102
REMARK   47  A    between atoms: _104  and  _106
REMARK   48  A    between atoms: _106  and  _107
REMARK   49  A    between atoms: _106  and  _109
REMARK   50  A    between atoms: _112  and  _114
REMARK   51  A    between atoms: _114  and  _115
REMARK   52  A    between atoms: _114  and  _117
REMARK   53  A    between atoms: _117  and  _118
REMARK   54  A    between atoms: _121  and  _123
REMARK   55  A    between atoms: _123  and  _124
REMARK   56  A    between atoms: _123  and  _126
REMARK   57  A    between atoms: _126  and  _127
REMARK   58  A    between atoms: _130  and  _132
REMARK   59  A    between atoms: _132  and  _133
REMARK   60  A    between atoms: _132  and  _135
REMARK   61  A    between atoms: _135  and  _136
REMARK   62  A    between atoms: _139  and  _141
REMARK   63  A    between atoms: _141  and  _142
REMARK   64  A    between atoms: _145  and  _147
REMARK   65  A    between atoms: _147  and  _148
REMARK   66  A    between atoms: _147  and  _150
REMARK   67  A    between atoms: _150  and  _151
REMARK   68  A    between atoms: _154  and  _156
REMARK   69  A    between atoms: _156  and  _157
REMARK   70  A    between atoms: _156  and  _159
REMARK   71  A    between atoms: _159  and  _160
REMARK   72  A    between atoms: _165  and  _166
REMARK   73  A    between atoms: _168  and  _170
REMARK   74  A    between atoms: _170  and  _171
REMARK   75  A    between atoms: _170  and  _173
REMARK   76  A    between atoms: _173  and  _174
REMARK   77  A    between atoms: _180  and  _182
REMARK   78  A    between atoms: _182  and  _183
REMARK   79  A    between atoms: _182  and  _185
REMARK   80  A    between atoms: _185  and  _186
REMARK   81  A    between atoms: _196  and  _198
REMARK   82  A    between atoms: _198  and  _199
REMARK   83  A    between atoms: _198  and  _201
REMARK   84  A    between atoms: _201  and  _202
REMARK   85  A    between atoms: _202  and  _203
REMARK   86  A    between atoms: _205  and  _207
REMARK   87  A    between atoms: _207  and  _208
REMARK   88  A    between atoms: _207  and  _210
REMARK   89  A    between atoms: _210  and  _211
REMARK   90  A    between atoms: _211  and  _212
REMARK   91  A    between atoms: _214  and  _216
REMARK   92  A    between atoms: _216  and  _217
REMARK   93  A    between atoms: _216  and  _219
REMARK   94  A    between atoms: _222  and  _224
REMARK   95  A    between atoms: _224  and  _225
REMARK   96  A    between atoms: _227  and  _229
REMARK   97  A    between atoms: _229  and  _230
REMARK   98  A    between atoms: _229  and  _232
REMARK   99  A    between atoms: _232  and  _233
REMARK  100  A    between atoms: _233  and  _234
REMARK  101  A    between atoms: _239  and  _241
REMARK  102  A    between atoms: _241  and  _242
REMARK  103  A    between atoms: _241  and  _244
REMARK  104  A    between atoms: _244  and  _245
REMARK  105  A    between atoms: _248  and  _250
REMARK  106  A    between atoms: _250  and  _251
REMARK  107  A    between atoms: _253  and  _255
REMARK  108  A    between atoms: _255  and  _256
REMARK  109  A    between atoms: _255  and  _258
REMARK  110  A    between atoms: _258  and  _259
REMARK  111  A    between atoms: _265  and  _267
REMARK  112  A    between atoms: _267  and  _268
REMARK  113  A    between atoms: _267  and  _270
REMARK  114  A    between atoms: _270  and  _271
REMARK  115  A    between atoms: _276  and  _277
REMARK  116  A    between atoms: _279  and  _281
REMARK  117  A    between atoms: _281  and  _282
REMARK  118  A    between atoms: _281  and  _284
REMARK  119  A    between atoms: _287  and  _289
REMARK  120  A    between atoms: _289  and  _290
REMARK  121  A    between atoms: _293  and  _295
REMARK  122  A    between atoms: _295  and  _296
REMARK  123  A    between atoms: _295  and  _298
REMARK  124  A    between atoms: _298  and  _299
REMARK  125  A    between atoms: _304  and  _305
REMARK  126  A    between atoms: _307  and  _309
REMARK  127  A    between atoms: _309  and  _310
REMARK  128  A    between atoms: _309  and  _312
REMARK  129  A    between atoms: _312  and  _313
REMARK  130  A    between atoms: ZN_323  and  _327
REMARK  131  A    between atoms: MG_324  and  _327
REMARK                            x       y       z     vdW  Elec       q    Type
REMARK                         _______ _______ _______ _____ _____    ______ ____
ROOT
ATOM      1  C   TYR A   1      13.290  12.894  47.813  0.00  0.00    +0.239 C 
ATOM      2  O   TYR A   1      12.800  12.614  48.907  0.00  0.00    -0.274 OA
ATOM      3  N   HIS A   2      13.880  11.992  47.033  0.00  0.00    -0.298 N 
ATOM      4  H   HIS A   2      14.309  12.284  46.132  0.00  0.00    +0.150 HD
ENDROOT
BRANCH   1   5
ATOM      5  CA  TYR A   1      13.161  14.319  47.305  0.00  0.00    +0.149 C 
BRANCH   5   6
ATOM      6  N   TYR A   1      14.394  14.912  46.784  0.00  0.00    -0.238 NA
ATOM      7  H   TYR A   1      14.943  14.409  46.058  0.00  0.00    +0.142 HD
ENDBRANCH   5   6
BRANCH   5   8
ATOM      8  CB  TYR A   1      12.045  14.405  46.223  0.00  0.00    +0.053 C 
BRANCH   8   9
ATOM      9  CG  TYR A   1      10.739  13.793  46.672  0.00  0.00    -0.020 A 
ATOM     10  CD2 TYR A   1      10.068  14.281  47.793  0.00  0.00    -0.001 A 
ATOM     11  CE2 TYR A   1       8.889  13.695  48.243  0.00  0.00    +0.036 A 
ATOM     12  CZ  TYR A   1       8.382  12.585  47.589  0.00  0.00    +0.134 A 
ATOM     13  CE1 TYR A   1       9.040  12.067  46.484  0.00  0.00    +0.036 A 
ATOM     14  CD1 TYR A   1      10.214  12.678  46.030  0.00  0.00    -0.001 A 
BRANCH  12  15
ATOM     15  OH  TYR A   1       7.189  12.015  48.000  0.00  0.00    -0.506 OA
ATOM     16  HH  TYR A   1       6.851  12.497  48.796  0.00  0.00    +0.292 HD
ENDBRANCH  12  15
ENDBRANCH   8   9
ENDBRANCH   5   8
ENDBRANCH   1   5
BRANCH   3  17
ATOM     17  CA  HIS A   2      13.925  10.582  47.447  0.00  0.00    +0.143 C 
BRANCH  17  18
ATOM     18  C   HIS A   2      15.087  10.348  48.382  0.00  0.00    +0.227 C 
ATOM     19  O   HIS A   2      16.018   9.588  48.088  0.00  0.00    -0.286 OA
ENDBRANCH  17  18
BRANCH  17  20
ATOM     20  CB  HIS A   2      13.913   9.655  46.240  0.00  0.00    +0.075 C 
BRANCH  20  21
ATOM     21  CG  HIS A   2      12.629   9.649  45.481  0.00  0.00    +0.082 A 
ATOM     22  CD2 HIS A   2      11.413   9.177  45.839  0.00  0.00    +0.115 A 
ATOM     23  NE2 HIS A   2      10.564   9.430  44.786  0.00  0.00    -0.221 NA
ATOM     24  CE1 HIS A   2      11.283  10.039  43.840  0.00  0.00    +0.199 A 
ATOM     25  ND1 HIS A   2      12.534  10.215  44.228  0.00  0.00    -0.227 NA
ENDBRANCH  20  21
ENDBRANCH  17  20
ENDBRANCH   3  17
TORSDOF 9
REMARK  Name = ../refined-set-2016/5c1w/5c1w_pocket.pdb
REMARK  131 active torsions:
REMARK  status: ('A' for Active; 'I' for Inactive)
REMARK    1  A    between atoms: _1  and  _3
REMARK    2  A    between atoms: _3  and  _4
REMARK    3  A    between atoms: _3  and  _6
REMARK    4  A    between atoms: _6  and  _7
REMARK    5  A    between atoms: _12  and  _13
REMARK    6  A    between atoms: _15  and  _17
REMARK    7  A    between atoms: _17  and  _18
REMARK    8  A    between atoms: _17  and  _20
REMARK    9  A    between atoms: _20  and  _21
REMARK   10  A    between atoms: _26  and  _28
REMARK   11  A    between atoms: _28  and  _29
REMARK   12  A    between atoms: _28  and  _31
REMARK   13  A    between atoms: _31  and  _32
REMARK   14  A    between atoms: _36  and  ZN_323
REMARK   15  A    between atoms: _37  and  _39
REMARK   16  A    between atoms: _39  and  _40
REMARK   17  A    between atoms: _39  and  _42
REMARK   18  A    between atoms: _42  and  _43
REMARK   19  A    between atoms: _46  and  _48
REMARK   20  A    between atoms: _48  and  _49
REMARK   21  A    between atoms: _48  and  _51
REMARK   22  A    between atoms: _51  and  _52
REMARK   23  A    between atoms: _55  and  _57
REMARK   24  A    between atoms: _57  and  _58
REMARK   25  A    between atoms: _57  and  _60
REMARK   26  A    between atoms: _60  and  _61
REMARK   27  A    between atoms: _64  and  _66
REMARK   28  A    between atoms: _66  and  _67
REMARK   29  A    between atoms: _66  and  _69
REMARK   30  A    between atoms: _71  and  _73
REMARK   31  A    between atoms: _73  and  _74
REMARK   32  A    between atoms: _73  and  _76
REMARK   33  A    between atoms: _76  and  _77
REMARK   34  A    between atoms: _77  and  _78
REMARK   35  A    between atoms: _78  and  ZN_323
REMARK   36  A    between atoms: _80  and  _82
REMARK   37  A    between atoms: _82  and  _83
REMARK   38  A    between atoms: _82  and  _85
REMARK   39  A    between atoms: _85  and  _86
REMARK   40  A    between atoms: _89  and  _91
REMARK   41  A    between atoms: _91  and  _92
REMARK   42  A    between atoms: _91  and  _94
REMARK   43  A    between atoms: _96  and  _98
REMARK   44  A    between atoms: _98  and  _99
REMARK   45  A    between atoms: _98  and  _101
REMARK   46  A    between atoms: _101  and  _102
REMARK   47  A    between atoms: _104  and  _106
REMARK   48  A    between atoms: _106  and  _107
REMARK   49  A    between atoms: _106  and  _109
REMARK   50  A    between atoms: _112  and  _114
REMARK   51  A    between atoms: _114  and  _115
REMARK   52  A    between atoms: _114  and  _117
REMARK   53  A    between atoms: _117  and  _118
REMARK   54  A    between atoms: _121  and  _123
REMARK   55  A    between atoms: _123  and  _124
REMARK   56  A    between atoms: _123  and  _126
REMARK   57  A    between atoms: _126  and  _127
REMARK   58  A    between atoms: _130  and  _132
REMARK   59  A    between atoms: _132  and  _133
REMARK   60  A    between atoms: _132  and  _135
REMARK   61  A    between atoms: _135  and  _136
REMARK   62  A    between atoms: _139  and  _141
REMARK   63  A    between atoms: _141  and  _142
REMARK   64  A    between atoms: _145  and  _147
REMARK   65  A    between atoms: _147  and  _148
REMARK   66  A    between atoms: _147  and  _150
REMARK   67  A    between atoms: _150  and  _151
REMARK   68  A    between atoms: _154  and  _156
REMARK   69  A    between atoms: _156  and  _157
REMARK   70  A    between atoms: _156  and  _159
REMARK   71  A    between atoms: _159  and  _160
REMARK   72  A    between atoms: _165  and  _166
REMARK   73  A    between atoms: _168  and  _170
REMARK   74  A    between atoms: _170  and  _171
REMARK   75  A    between atoms: _170  and  _173
REMARK   76  A    between atoms: _173  and  _174
REMARK   77  A    between atoms: _180  and  _182
REMARK   78  A    between atoms: _182  and  _183
REMARK   79  A    between atoms: _182  and  _185
REMARK   80  A    between atoms: _185  and  _186
REMARK   81  A    between atoms: _196  and  _198
REMARK   82  A    between atoms: _198  and  _199
REMARK   83  A    between atoms: _198  and  _201
REMARK   84  A    between atoms: _201  and  _202
REMARK   85  A    between atoms: _202  and  _203
REMARK   86  A    between atoms: _205  and  _207
REMARK   87  A    between atoms: _207  and  _208
REMARK   88  A    between atoms: _207  and  _210
REMARK   89  A    between atoms: _210  and  _211
REMARK   90  A    between atoms: _211  and  _212
REMARK   91  A    between atoms: _214  and  _216
REMARK   92  A    between atoms: _216  and  _217
REMARK   93  A    between atoms: _216  and  _219
REMARK   94  A    between atoms: _222  and  _224
REMARK   95  A    between atoms: _224  and  _225
REMARK   96  A    between atoms: _227  and  _229
REMARK   97  A    between atoms: _229  and  _230
REMARK   98  A    between atoms: _229  and  _232
REMARK   99  A    between atoms: _232  and  _233
REMARK  100  A    between atoms: _233  and  _234
REMARK  101  A    between atoms: _239  and  _241
REMARK  102  A    between atoms: _241  and  _242
REMARK  103  A    between atoms: _241  and  _244
REMARK  104  A    between atoms: _244  and  _245
REMARK  105  A    between atoms: _248  and  _250
REMARK  106  A    between atoms: _250  and  _251
REMARK  107  A    between atoms: _253  and  _255
REMARK  108  A    between atoms: _255  and  _256
REMARK  109  A    between atoms: _255  and  _258
REMARK  110  A    between atoms: _258  and  _259
REMARK  111  A    between atoms: _265  and  _267
REMARK  112  A    between atoms: _267  and  _268
REMARK  113  A    between atoms: _267  and  _270
REMARK  114  A    between atoms: _270  and  _271
REMARK  115  A    between atoms: _276  and  _277
REMARK  116  A    between atoms: _279  and  _281
REMARK  117  A    between atoms: _281  and  _282
REMARK  118  A    between atoms: _281  and  _284
REMARK  119  A    between atoms: _287  and  _289
REMARK  120  A    between atoms: _289  and  _290
REMARK  121  A    between atoms: _293  and  _295
REMARK  122  A    between atoms: _295  and  _296
REMARK  123  A    between atoms: _295  and  _298
REMARK  124  A    between atoms: _298  and  _299
REMARK  125  A    between atoms: _304  and  _305
REMARK  126  A    between atoms: _307  and  _309
REMARK  127  A    between atoms: _309  and  _310
REMARK  128  A    between atoms: _309  and  _312
REMARK  129  A    between atoms: _312  and  _313
REMARK  130  A    between atoms: ZN_323  and  _327
REMARK  131  A    between atoms: MG_324  and  _327
REMARK                            x       y       z     vdW  Elec       q    Type
REMARK                         _______ _______ _______ _____ _____    ______ ____
ROOT
ATOM      1  CA  LEU A   3       2.192   9.789  48.617  0.00  0.00    +0.000 C 
ENDROOT
BRANCH   1   2
ATOM      2  C   LEU A   3       1.749  10.718  49.753  0.00  0.00    +0.000 C 
ATOM      3  N   CYS A   4       2.005  10.406  51.044  0.00  0.00    +0.000 N 
ATOM      4  H   CYS A   4       2.632   9.603  51.253  0.00  0.00    +0.000 HD
ATOM      5  O   LEU A   3       1.166  11.753  49.441  0.00  0.00    +0.000 OA
BRANCH   3   6
ATOM      6  CA  CYS A   4       1.424  11.167  52.164  0.00  0.00    +0.000 C 
BRANCH   6   7
ATOM      7  C   CYS A   4       1.794  12.639  52.247  0.00  0.00    +0.000 C 
ATOM      8  O   CYS A   4       1.165  13.356  53.029  0.00  0.00    +0.000 OA
ATOM      9  N   SER A   5       2.745  13.133  51.444  0.00  0.00    +0.000 N 
ATOM     10  H   SER A   5       3.285  12.519  50.802  0.00  0.00    +0.000 HD
BRANCH   9  11
ATOM     11  CA  SER A   5       2.991  14.568  51.508  0.00  0.00    +0.000 C 
BRANCH  11  12
ATOM     12  C   SER A   5       1.706  15.293  51.070  0.00  0.00    +0.000 C 
ATOM     13  O   SER A   5       1.494  16.418  51.493  0.00  0.00    +0.000 OA
ATOM     14  N   VAL A   6       0.831  14.646  50.277  0.00  0.00    +0.000 N 
ATOM     15  H   VAL A   6       1.072  13.685  49.962  0.00  0.00    +0.000 HD
BRANCH  14  16
ATOM     16  CA  VAL A   6      -0.452  15.225  49.830  0.00  0.00    +0.000 C 
BRANCH  16  17
ATOM     17  C   VAL A   6      -1.522  15.227  50.960  0.00  0.00    +0.000 C 
ATOM     18  N   THR A   7      -1.215  14.619  52.135  0.00  0.00    +0.000 N 
ATOM     19  H   THR A   7      -0.279  14.177  52.233  0.00  0.00    +0.000 HD
ATOM     20  O   VAL A   6      -2.605  15.795  50.762  0.00  0.00    +0.000 OA
BRANCH  18  21
ATOM     21  CA  THR A   7      -2.144  14.554  53.279  0.00  0.00    +0.000 C 
BRANCH  21  22
ATOM     22  C   THR A   7      -1.735  15.491  54.437  0.00  0.00    +0.000 C 
ATOM     23  O   THR A   7      -2.340  15.444  55.506  0.00  0.00    +0.000 OA
ENDBRANCH  21  22
BRANCH  21  24
ATOM     24  CB  THR A   7      -2.321  13.125  53.754  0.00  0.00    +0.000 C 
ATOM     25  CG2 THR A   7      -2.722  12.182  52.635  0.00  0.00    +0.000 C 
BRANCH  24  26
ATOM     26  OG1 THR A   7      -1.112  12.676  54.361  0.00  0.00    +0.000 OA
ATOM     27  HG1 THR A   7      -0.377  12.717  53.699  0.00  0.00    +0.000 HD
ENDBRANCH  24  26
ENDBRANCH  21  24
ENDBRANCH  18  21
ENDBRANCH  16  17
BRANCH  16  28
ATOM     28  CB  VAL A   6      -0.982  14.587  48.531  0.00  0.00    +0.000 C 
ATOM     29  CG2 VAL A   6      -1.595  13.220  48.817  0.00  0.00    +0.000 C 
ATOM     30  CG1 VAL A   6       0.106  14.528  47.454  0.00  0.00    +0.000 C 
ENDBRANCH  16  28
ENDBRANCH  14  16
ENDBRANCH  11  12
BRANCH  11  31
ATOM     31  CB  SER A   5       4.132  14.980  50.588  0.00  0.00    +0.000 C 
BRANCH  31  32
ATOM     32  OG  SER A   5       3.786  14.750  49.231  0.00  0.00    +0.000 OA
ATOM     33  H   SER A   5       3.597  13.787  49.098  0.00  0.00    +0.000 HD
ENDBRANCH  31  32
ENDBRANCH  11  31
ENDBRANCH   9  11
ENDBRANCH   6   7
BRANCH   6  34
ATOM     34  CB  CYS A   4       1.624  10.478  53.507  0.00  0.00    +0.000 C 
ATOM     35  SG  CYS A   4       3.291  10.630  54.155  0.00  0.00    +0.000 S 
ENDBRANCH   6  34
ENDBRANCH   3   6
ENDBRANCH   1   2
BRANCH   1  38
ATOM     36  C   UNK A   1       4.056   8.344  49.298  0.00  0.00    +0.000 C 
ATOM     37  O   UNK A   1       4.872   9.237  49.124  0.00  0.00    +0.000 OA
ATOM     38  N   LEU A   3       2.746   8.521  49.098  0.00  0.00    +0.000 N 
ATOM     39  H   LEU A   3       2.098   7.731  49.291  0.00  0.00    +0.000 HD
BRANCH  36  40
ATOM     40  C   UNK A   1       4.515   6.959  49.769  0.00  0.00    +0.000 C 
BRANCH  40  41
ATOM     41  N   UNK A   1       3.560   6.372  50.702  0.00  0.00    +0.000 N 
ATOM     42  C   UNK A   1       3.233   6.940  51.866  0.00  0.00    +0.000 C 
ATOM     43  O   UNK A   1       3.713   8.020  52.250  0.00  0.00    +0.000 OA
ATOM     44  H   UNK A   1       3.112   5.468  50.449  0.00  0.00    +0.000 HD
BRANCH  42  45
ATOM     45  C   UNK A   1       2.229   6.189  52.738  0.00  0.00    +0.000 C 
BRANCH  45  46
ATOM     46  C   UNK A   1       2.904   5.056  53.486  0.00  0.00    +0.000 C 
ATOM     47  S   UNK A   1       1.860   4.357  54.773  0.00  0.00    +0.000 S 
ENDBRANCH  45  46
BRANCH  45  48
ATOM     48  N   UNK A   1       1.100   5.668  51.950  0.00  0.00    +0.000 NA
ATOM     49  H   UNK A   1       1.016   4.643  51.798  0.00  0.00    +0.000 HD
ENDBRANCH  45  48
ENDBRANCH  42  45
ENDBRANCH  40  41
BRANCH  40  50
ATOM     50  C   UNK A   1       4.680   6.020  48.567  0.00  0.00    +0.000 C 
BRANCH  50  51
ATOM     51  C   UNK A   1       5.981   6.173  47.809  0.00  0.00    +0.000 C 
ATOM     52  O   UNK A   1       6.094   5.592  46.720  0.00  0.00    +0.000 OA
BRANCH  51  53
ATOM     53  O   UNK A   1       6.885   6.872  48.311  0.00  0.00    +0.000 OA
BRANCH  53  54
ATOM     54 ZN   UNK A   1       8.957   6.791  47.957  0.00  0.00    +0.000 Zn
ATOM     55  O   UNK A   1       8.545   8.297  46.298  0.00  0.00    +0.000 OA
BRANCH  54  59
ATOM     56  C   UNK A   1      10.336  10.001  50.480  0.00  0.00    +0.000 A 
ATOM     57  N   UNK A   1       9.012  10.410  50.439  0.00  0.00    +0.000 NA
ATOM     58  C   UNK A   1       8.386   9.506  49.695  0.00  0.00    +0.000 A 
ATOM     59  N   UNK A   1       9.215   8.557  49.264  0.00  0.00    +0.000 N 
ATOM     60  C   UNK A   1      10.468   8.872  49.750  0.00  0.00    +0.000 A 
BRANCH  56  61
ATOM     61  C   UNK A   1      11.373  10.788  51.215  0.00  0.00    +0.000 C 
BRANCH  61  62
ATOM     62  C   UNK A   1      11.093  10.981  52.709  0.00  0.00    +0.000 C 
BRANCH  62  63
ATOM     63  N   UNK A   1      12.219  11.682  53.327  0.00  0.00    +0.000 NA
ATOM     64  H   UNK A   1      13.033  11.952  52.739  0.00  0.00    +0.000 HD
ENDBRANCH  62  63
BRANCH  62  65
ATOM     65  C   UNK A   1      10.895   9.619  53.390  0.00  0.00    +0.000 C 
ATOM     66  O   UNK A   1       9.768   9.238  53.709  0.00  0.00    +0.000 OA
ENDBRANCH  62  65
ENDBRANCH  61  62
ENDBRANCH  56  61
ENDBRANCH  54  59
BRANCH  54  67
ATOM     67  O   UNK A   1       8.750   5.477  46.437  0.00  0.00    +0.000 OA
BRANCH  67  68
ATOM     68 MG   UNK A   1      10.080   4.730  45.154  0.00  0.00    +0.000 Mg
ATOM     69  O   UNK A   1       8.591   3.983  43.812  0.00  0.00    +0.000 OA
ENDBRANCH  67  68
ENDBRANCH  54  67
ENDBRANCH  53  54
ENDBRANCH  51  53
ENDBRANCH  50  51
ENDBRANCH  40  50
ENDBRANCH  36  40
ENDBRANCH   1  38
BRANCH   1  70
ATOM     70  CB  LEU A   3       0.943   9.492  47.734  0.00  0.00    +0.000 C 
BRANCH  70  71
ATOM     71  CG  LEU A   3       1.116   8.562  46.543  0.00  0.00    +0.000 C 
ATOM     72  CD2 LEU A   3      -0.168   8.448  45.750  0.00  0.00    +0.000 C 
ATOM     73  CD1 LEU A   3       2.223   8.994  45.668  0.00  0.00    +0.000 C 
ENDBRANCH  70  71
ENDBRANCH   1  70
TORSDOF 34
REMARK  Name = ../refined-set-2016/5c1w/5c1w_pocket.pdb
REMARK  131 active torsions:
REMARK  status: ('A' for Active; 'I' for Inactive)
REMARK    1  A    between atoms: _1  and  _3
REMARK    2  A    between atoms: _3  and  _4
REMARK    3  A    between atoms: _3  and  _6
REMARK    4  A    between atoms: _6  and  _7
REMARK    5  A    between atoms: _12  and  _13
REMARK    6  A    between atoms: _15  and  _17
REMARK    7  A    between atoms: _17  and  _18
REMARK    8  A    between atoms: _17  and  _20
REMARK    9  A    between atoms: _20  and  _21
REMARK   10  A    between atoms: _26  and  _28
REMARK   11  A    between atoms: _28  and  _29
REMARK   12  A    between atoms: _28  and  _31
REMARK   13  A    between atoms: _31  and  _32
REMARK   14  A    between atoms: _36  and  ZN_323
REMARK   15  A    between atoms: _37  and  _39
REMARK   16  A    between atoms: _39  and  _40
REMARK   17  A    between atoms: _39  and  _42
REMARK   18  A    between atoms: _42  and  _43
REMARK   19  A    between atoms: _46  and  _48
REMARK   20  A    between atoms: _48  and  _49
REMARK   21  A    between atoms: _48  and  _51
REMARK   22  A    between atoms: _51  and  _52
REMARK   23  A    between atoms: _55  and  _57
REMARK   24  A    between atoms: _57  and  _58
REMARK   25  A    between atoms: _57  and  _60
REMARK   26  A    between atoms: _60  and  _61
REMARK   27  A    between atoms: _64  and  _66
REMARK   28  A    between atoms: _66  and  _67
REMARK   29  A    between atoms: _66  and  _69
REMARK   30  A    between atoms: _71  and  _73
REMARK   31  A    between atoms: _73  and  _74
REMARK   32  A    between atoms: _73  and  _76
REMARK   33  A    between atoms: _76  and  _77
REMARK   34  A    between atoms: _77  and  _78
REMARK   35  A    between atoms: _78  and  ZN_323
REMARK   36  A    between atoms: _80  and  _82
REMARK   37  A    between atoms: _82  and  _83
REMARK   38  A    between atoms: _82  and  _85
REMARK   39  A    between atoms: _85  and  _86
REMARK   40  A    between atoms: _89  and  _91
REMARK   41  A    between atoms: _91  and  _92
REMARK   42  A    between atoms: _91  and  _94
REMARK   43  A    between atoms: _96  and  _98
REMARK   44  A    between atoms: _98  and  _99
REMARK   45  A    between atoms: _98  and  _101
REMARK   46  A    between atoms: _101  and  _102
REMARK   47  A    between atoms: _104  and  _106
REMARK   48  A    between atoms: _106  and  _107
REMARK   49  A    between atoms: _106  and  _109
REMARK   50  A    between atoms: _112  and  _114
REMARK   51  A    between atoms: _114  and  _115
REMARK   52  A    between atoms: _114  and  _117
REMARK   53  A    between atoms: _117  and  _118
REMARK   54  A    between atoms: _121  and  _123
REMARK   55  A    between atoms: _123  and  _124
REMARK   56  A    between atoms: _123  and  _126
REMARK   57  A    between atoms: _126  and  _127
REMARK   58  A    between atoms: _130  and  _132
REMARK   59  A    between atoms: _132  and  _133
REMARK   60  A    between atoms: _132  and  _135
REMARK   61  A    between atoms: _135  and  _136
REMARK   62  A    between atoms: _139  and  _141
REMARK   63  A    between atoms: _141  and  _142
REMARK   64  A    between atoms: _145  and  _147
REMARK   65  A    between atoms: _147  and  _148
REMARK   66  A    between atoms: _147  and  _150
REMARK   67  A    between atoms: _150  and  _151
REMARK   68  A    between atoms: _154  and  _156
REMARK   69  A    between atoms: _156  and  _157
REMARK   70  A    between atoms: _156  and  _159
REMARK   71  A    between atoms: _159  and  _160
REMARK   72  A    between atoms: _165  and  _166
REMARK   73  A    between atoms: _168  and  _170
REMARK   74  A    between atoms: _170  and  _171
REMARK   75  A    between atoms: _170  and  _173
REMARK   76  A    between atoms: _173  and  _174
REMARK   77  A    between atoms: _180  and  _182
REMARK   78  A    between atoms: _182  and  _183
REMARK   79  A    between atoms: _182  and  _185
REMARK   80  A    between atoms: _185  and  _186
REMARK   81  A    between atoms: _196  and  _198
REMARK   82  A    between atoms: _198  and  _199
REMARK   83  A    between atoms: _198  and  _201
REMARK   84  A    between atoms: _201  and  _202
REMARK   85  A    between atoms: _202  and  _203
REMARK   86  A    between atoms: _205  and  _207
REMARK   87  A    between atoms: _207  and  _208
REMARK   88  A    between atoms: _207  and  _210
REMARK   89  A    between atoms: _210  and  _211
REMARK   90  A    between atoms: _211  and  _212
REMARK   91  A    between atoms: _214  and  _216
REMARK   92  A    between atoms: _216  and  _217
REMARK   93  A    between atoms: _216  and  _219
REMARK   94  A    between atoms: _222  and  _224
REMARK   95  A    between atoms: _224  and  _225
REMARK   96  A    between atoms: _227  and  _229
REMARK   97  A    between atoms: _229  and  _230
REMARK   98  A    between atoms: _229  and  _232
REMARK   99  A    between atoms: _232  and  _233
REMARK  100  A    between atoms: _233  and  _234
REMARK  101  A    between atoms: _239  and  _241
REMARK  102  A    between atoms: _241  and  _242
REMARK  103  A    between atoms: _241  and  _244
REMARK  104  A    between atoms: _244  and  _245
REMARK  105  A    between atoms: _248  and  _250
REMARK  106  A    between atoms: _250  and  _251
REMARK  107  A    between atoms: _253  and  _255
REMARK  108  A    between atoms: _255  and  _256
REMARK  109  A    between atoms: _255  and  _258
REMARK  110  A    between atoms: _258  and  _259
REMARK  111  A    between atoms: _265  and  _267
REMARK  112  A    between atoms: _267  and  _268
REMARK  113  A    between atoms: _267  and  _270
REMARK  114  A    between atoms: _270  and  _271
REMARK  115  A    between atoms: _276  and  _277
REMARK  116  A    between atoms: _279  and  _281
REMARK  117  A    between atoms: _281  and  _282
REMARK  118  A    between atoms: _281  and  _284
REMARK  119  A    between atoms: _287  and  _289
REMARK  120  A    between atoms: _289  and  _290
REMARK  121  A    between atoms: _293  and  _295
REMARK  122  A    between atoms: _295  and  _296
REMARK  123  A    between atoms: _295  and  _298
REMARK  124  A    between atoms: _298  and  _299
REMARK  125  A    between atoms: _304  and  _305
REMARK  126  A    between atoms: _307  and  _309
REMARK  127  A    between atoms: _309  and  _310
REMARK  128  A    between atoms: _309  and  _312
REMARK  129  A    between atoms: _312  and  _313
REMARK  130  A    between atoms: ZN_323  and  _327
REMARK  131  A    between atoms: MG_324  and  _327
REMARK                            x       y       z     vdW  Elec       q    Type
REMARK                         _______ _______ _______ _____ _____    ______ ____
ROOT
ATOM      1  CA  THR A   1       5.620   1.423  45.728  0.00  0.00    +0.160 C 
ENDROOT
BRANCH   1   2
ATOM      2  N   THR A   1       5.404  -0.032  45.775  0.00  0.00    -0.237 NA
ATOM      3  H   THR A   1       6.179  -0.653  46.083  0.00  0.00    +0.142 HD
ENDBRANCH   1   2
BRANCH   1   4
ATOM      4  CB  THR A   1       6.694   1.922  46.701  0.00  0.00    +0.134 C 
ATOM      5  CG2 THR A   1       6.359   1.656  48.168  0.00  0.00    +0.034 C 
BRANCH   4   6
ATOM      6  OG1 THR A   1       7.947   1.378  46.325  0.00  0.00    -0.383 OA
ATOM      7  HG1 THR A   1       7.900   0.390  46.358  0.00  0.00    +0.210 HD
ENDBRANCH   4   6
ENDBRANCH   1   4
BRANCH   1   8
ATOM      8  C   THR A   1       5.842   1.891  44.288  0.00  0.00    +0.227 C 
ATOM      9  O   THR A   1       5.957   3.095  44.064  0.00  0.00    -0.287 OA
ENDBRANCH   1   8
TORSDOF 4
REMARK  Name = ../refined-set-2016/5c1w/5c1w_pocket.pdb
REMARK  131 active torsions:
REMARK  status: ('A' for Active; 'I' for Inactive)
REMARK    1  A    between atoms: _1  and  _3
REMARK    2  A    between atoms: _3  and  _4
REMARK    3  A    between atoms: _3  and  _6
REMARK    4  A    between atoms: _6  and  _7
REMARK    5  A    between atoms: _12  and  _13
REMARK    6  A    between atoms: _15  and  _17
REMARK    7  A    between atoms: _17  and  _18
REMARK    8  A    between atoms: _17  and  _20
REMARK    9  A    between atoms: _20  and  _21
REMARK   10  A    between atoms: _26  and  _28
REMARK   11  A    between atoms: _28  and  _29
REMARK   12  A    between atoms: _28  and  _31
REMARK   13  A    between atoms: _31  and  _32
REMARK   14  A    between atoms: _36  and  ZN_323
REMARK   15  A    between atoms: _37  and  _39
REMARK   16  A    between atoms: _39  and  _40
REMARK   17  A    between atoms: _39  and  _42
REMARK   18  A    between atoms: _42  and  _43
REMARK   19  A    between atoms: _46  and  _48
REMARK   20  A    between atoms: _48  and  _49
REMARK   21  A    between atoms: _48  and  _51
REMARK   22  A    between atoms: _51  and  _52
REMARK   23  A    between atoms: _55  and  _57
REMARK   24  A    between atoms: _57  and  _58
REMARK   25  A    between atoms: _57  and  _60
REMARK   26  A    between atoms: _60  and  _61
REMARK   27  A    between atoms: _64  and  _66
REMARK   28  A    between atoms: _66  and  _67
REMARK   29  A    between atoms: _66  and  _69
REMARK   30  A    between atoms: _71  and  _73
REMARK   31  A    between atoms: _73  and  _74
REMARK   32  A    between atoms: _73  and  _76
REMARK   33  A    between atoms: _76  and  _77
REMARK   34  A    between atoms: _77  and  _78
REMARK   35  A    between atoms: _78  and  ZN_323
REMARK   36  A    between atoms: _80  and  _82
REMARK   37  A    between atoms: _82  and  _83
REMARK   38  A    between atoms: _82  and  _85
REMARK   39  A    between atoms: _85  and  _86
REMARK   40  A    between atoms: _89  and  _91
REMARK   41  A    between atoms: _91  and  _92
REMARK   42  A    between atoms: _91  and  _94
REMARK   43  A    between atoms: _96  and  _98
REMARK   44  A    between atoms: _98  and  _99
REMARK   45  A    between atoms: _98  and  _101
REMARK   46  A    between atoms: _101  and  _102
REMARK   47  A    between atoms: _104  and  _106
REMARK   48  A    between atoms: _106  and  _107
REMARK   49  A    between atoms: _106  and  _109
REMARK   50  A    between atoms: _112  and  _114
REMARK   51  A    between atoms: _114  and  _115
REMARK   52  A    between atoms: _114  and  _117
REMARK   53  A    between atoms: _117  and  _118
REMARK   54  A    between atoms: _121  and  _123
REMARK   55  A    between atoms: _123  and  _124
REMARK   56  A    between atoms: _123  and  _126
REMARK   57  A    between atoms: _126  and  _127
REMARK   58  A    between atoms: _130  and  _132
REMARK   59  A    between atoms: _132  and  _133
REMARK   60  A    between atoms: _132  and  _135
REMARK   61  A    between atoms: _135  and  _136
REMARK   62  A    between atoms: _139  and  _141
REMARK   63  A    between atoms: _141  and  _142
REMARK   64  A    between atoms: _145  and  _147
REMARK   65  A    between atoms: _147  and  _148
REMARK   66  A    between atoms: _147  and  _150
REMARK   67  A    between atoms: _150  and  _151
REMARK   68  A    between atoms: _154  and  _156
REMARK   69  A    between atoms: _156  and  _157
REMARK   70  A    between atoms: _156  and  _159
REMARK   71  A    between atoms: _159  and  _160
REMARK   72  A    between atoms: _165  and  _166
REMARK   73  A    between atoms: _168  and  _170
REMARK   74  A    between atoms: _170  and  _171
REMARK   75  A    between atoms: _170  and  _173
REMARK   76  A    between atoms: _173  and  _174
REMARK   77  A    between atoms: _180  and  _182
REMARK   78  A    between atoms: _182  and  _183
REMARK   79  A    between atoms: _182  and  _185
REMARK   80  A    between atoms: _185  and  _186
REMARK   81  A    between atoms: _196  and  _198
REMARK   82  A    between atoms: _198  and  _199
REMARK   83  A    between atoms: _198  and  _201
REMARK   84  A    between atoms: _201  and  _202
REMARK   85  A    between atoms: _202  and  _203
REMARK   86  A    between atoms: _205  and  _207
REMARK   87  A    between atoms: _207  and  _208
REMARK   88  A    between atoms: _207  and  _210
REMARK   89  A    between atoms: _210  and  _211
REMARK   90  A    between atoms: _211  and  _212
REMARK   91  A    between atoms: _214  and  _216
REMARK   92  A    between atoms: _216  and  _217
REMARK   93  A    between atoms: _216  and  _219
REMARK   94  A    between atoms: _222  and  _224
REMARK   95  A    between atoms: _224  and  _225
REMARK   96  A    between atoms: _227  and  _229
REMARK   97  A    between atoms: _229  and  _230
REMARK   98  A    between atoms: _229  and  _232
REMARK   99  A    between atoms: _232  and  _233
REMARK  100  A    between atoms: _233  and  _234
REMARK  101  A    between atoms: _239  and  _241
REMARK  102  A    between atoms: _241  and  _242
REMARK  103  A    between atoms: _241  and  _244
REMARK  104  A    between atoms: _244  and  _245
REMARK  105  A    between atoms: _248  and  _250
REMARK  106  A    between atoms: _250  and  _251
REMARK  107  A    between atoms: _253  and  _255
REMARK  108  A    between atoms: _255  and  _256
REMARK  109  A    between atoms: _255  and  _258
REMARK  110  A    between atoms: _258  and  _259
REMARK  111  A    between atoms: _265  and  _267
REMARK  112  A    between atoms: _267  and  _268
REMARK  113  A    between atoms: _267  and  _270
REMARK  114  A    between atoms: _270  and  _271
REMARK  115  A    between atoms: _276  and  _277
REMARK  116  A    between atoms: _279  and  _281
REMARK  117  A    between atoms: _281  and  _282
REMARK  118  A    between atoms: _281  and  _284
REMARK  119  A    between atoms: _287  and  _289
REMARK  120  A    between atoms: _289  and  _290
REMARK  121  A    between atoms: _293  and  _295
REMARK  122  A    between atoms: _295  and  _296
REMARK  123  A    between atoms: _295  and  _298
REMARK  124  A    between atoms: _298  and  _299
REMARK  125  A    between atoms: _304  and  _305
REMARK  126  A    between atoms: _307  and  _309
REMARK  127  A    between atoms: _309  and  _310
REMARK  128  A    between atoms: _309  and  _312
REMARK  129  A    between atoms: _312  and  _313
REMARK  130  A    between atoms: ZN_323  and  _327
REMARK  131  A    between atoms: MG_324  and  _327
REMARK                            x       y       z     vdW  Elec       q    Type
REMARK                         _______ _______ _______ _____ _____    ______ ____
ROOT
ATOM      1  CA  LEU A   1       3.084   3.657  40.917  0.00  0.00    +0.133 C 
ENDROOT
BRANCH   1   2
ATOM      2  N   LEU A   1       4.422   3.138  41.267  0.00  0.00    -0.239 NA
ATOM      3  H   LEU A   1       5.227   3.794  41.323  0.00  0.00    +0.142 HD
ENDBRANCH   1   2
BRANCH   1   4
ATOM      4  C   LEU A   1       2.449   3.002  39.703  0.00  0.00    +0.224 C 
ATOM      5  O   LEU A   1       1.238   2.950  39.610  0.00  0.00    -0.287 OA
ENDBRANCH   1   4
BRANCH   1   6
ATOM      6  CB  LEU A   1       3.091   5.177  40.758  0.00  0.00    +0.025 C 
BRANCH   6   7
ATOM      7  CG  LEU A   1       3.119   5.998  42.040  0.00  0.00    +0.002 C 
ATOM      8  CD2 LEU A   1       1.812   5.871  42.836  0.00  0.00    +0.000 C 
ATOM      9  CD1 LEU A   1       3.380   7.442  41.716  0.00  0.00    +0.000 C 
ENDBRANCH   6   7
ENDBRANCH   1   6
TORSDOF 4
REMARK  Name = ../refined-set-2016/5c1w/5c1w_pocket.pdb
REMARK  131 active torsions:
REMARK  status: ('A' for Active; 'I' for Inactive)
REMARK    1  A    between atoms: _1  and  _3
REMARK    2  A    between atoms: _3  and  _4
REMARK    3  A    between atoms: _3  and  _6
REMARK    4  A    between atoms: _6  and  _7
REMARK    5  A    between atoms: _12  and  _13
REMARK    6  A    between atoms: _15  and  _17
REMARK    7  A    between atoms: _17  and  _18
REMARK    8  A    between atoms: _17  and  _20
REMARK    9  A    between atoms: _20  and  _21
REMARK   10  A    between atoms: _26  and  _28
REMARK   11  A    between atoms: _28  and  _29
REMARK   12  A    between atoms: _28  and  _31
REMARK   13  A    between atoms: _31  and  _32
REMARK   14  A    between atoms: _36  and  ZN_323
REMARK   15  A    between atoms: _37  and  _39
REMARK   16  A    between atoms: _39  and  _40
REMARK   17  A    between atoms: _39  and  _42
REMARK   18  A    between atoms: _42  and  _43
REMARK   19  A    between atoms: _46  and  _48
REMARK   20  A    between atoms: _48  and  _49
REMARK   21  A    between atoms: _48  and  _51
REMARK   22  A    between atoms: _51  and  _52
REMARK   23  A    between atoms: _55  and  _57
REMARK   24  A    between atoms: _57  and  _58
REMARK   25  A    between atoms: _57  and  _60
REMARK   26  A    between atoms: _60  and  _61
REMARK   27  A    between atoms: _64  and  _66
REMARK   28  A    between atoms: _66  and  _67
REMARK   29  A    between atoms: _66  and  _69
REMARK   30  A    between atoms: _71  and  _73
REMARK   31  A    between atoms: _73  and  _74
REMARK   32  A    between atoms: _73  and  _76
REMARK   33  A    between atoms: _76  and  _77
REMARK   34  A    between atoms: _77  and  _78
REMARK   35  A    between atoms: _78  and  ZN_323
REMARK   36  A    between atoms: _80  and  _82
REMARK   37  A    between atoms: _82  and  _83
REMARK   38  A    between atoms: _82  and  _85
REMARK   39  A    between atoms: _85  and  _86
REMARK   40  A    between atoms: _89  and  _91
REMARK   41  A    between atoms: _91  and  _92
REMARK   42  A    between atoms: _91  and  _94
REMARK   43  A    between atoms: _96  and  _98
REMARK   44  A    between atoms: _98  and  _99
REMARK   45  A    between atoms: _98  and  _101
REMARK   46  A    between atoms: _101  and  _102
REMARK   47  A    between atoms: _104  and  _106
REMARK   48  A    between atoms: _106  and  _107
REMARK   49  A    between atoms: _106  and  _109
REMARK   50  A    between atoms: _112  and  _114
REMARK   51  A    between atoms: _114  and  _115
REMARK   52  A    between atoms: _114  and  _117
REMARK   53  A    between atoms: _117  and  _118
REMARK   54  A    between atoms: _121  and  _123
REMARK   55  A    between atoms: _123  and  _124
REMARK   56  A    between atoms: _123  and  _126
REMARK   57  A    between atoms: _126  and  _127
REMARK   58  A    between atoms: _130  and  _132
REMARK   59  A    between atoms: _132  and  _133
REMARK   60  A    between atoms: _132  and  _135
REMARK   61  A    between atoms: _135  and  _136
REMARK   62  A    between atoms: _139  and  _141
REMARK   63  A    between atoms: _141  and  _142
REMARK   64  A    between atoms: _145  and  _147
REMARK   65  A    between atoms: _147  and  _148
REMARK   66  A    between atoms: _147  and  _150
REMARK   67  A    between atoms: _150  and  _151
REMARK   68  A    between atoms: _154  and  _156
REMARK   69  A    between atoms: _156  and  _157
REMARK   70  A    between atoms: _156  and  _159
REMARK   71  A    between atoms: _159  and  _160
REMARK   72  A    between atoms: _165  and  _166
REMARK   73  A    between atoms: _168  and  _170
REMARK   74  A    between atoms: _170  and  _171
REMARK   75  A    between atoms: _170  and  _173
REMARK   76  A    between atoms: _173  and  _174
REMARK   77  A    between atoms: _180  and  _182
REMARK   78  A    between atoms: _182  and  _183
REMARK   79  A    between atoms: _182  and  _185
REMARK   80  A    between atoms: _185  and  _186
REMARK   81  A    between atoms: _196  and  _198
REMARK   82  A    between atoms: _198  and  _199
REMARK   83  A    between atoms: _198  and  _201
REMARK   84  A    between atoms: _201  and  _202
REMARK   85  A    between atoms: _202  and  _203
REMARK   86  A    between atoms: _205  and  _207
REMARK   87  A    between atoms: _207  and  _208
REMARK   88  A    between atoms: _207  and  _210
REMARK   89  A    between atoms: _210  and  _211
REMARK   90  A    between atoms: _211  and  _212
REMARK   91  A    between atoms: _214  and  _216
REMARK   92  A    between atoms: _216  and  _217
REMARK   93  A    between atoms: _216  and  _219
REMARK   94  A    between atoms: _222  and  _224
REMARK   95  A    between atoms: _224  and  _225
REMARK   96  A    between atoms: _227  and  _229
REMARK   97  A    between atoms: _229  and  _230
REMARK   98  A    between atoms: _229  and  _232
REMARK   99  A    between atoms: _232  and  _233
REMARK  100  A    between atoms: _233  and  _234
REMARK  101  A    between atoms: _239  and  _241
REMARK  102  A    between atoms: _241  and  _242
REMARK  103  A    between atoms: _241  and  _244
REMARK  104  A    between atoms: _244  and  _245
REMARK  105  A    between atoms: _248  and  _250
REMARK  106  A    between atoms: _250  and  _251
REMARK  107  A    between atoms: _253  and  _255
REMARK  108  A    between atoms: _255  and  _256
REMARK  109  A    between atoms: _255  and  _258
REMARK  110  A    between atoms: _258  and  _259
REMARK  111  A    between atoms: _265  and  _267
REMARK  112  A    between atoms: _267  and  _268
REMARK  113  A    between atoms: _267  and  _270
REMARK  114  A    between atoms: _270  and  _271
REMARK  115  A    between atoms: _276  and  _277
REMARK  116  A    between atoms: _279  and  _281
REMARK  117  A    between atoms: _281  and  _282
REMARK  118  A    between atoms: _281  and  _284
REMARK  119  A    between atoms: _287  and  _289
REMARK  120  A    between atoms: _289  and  _290
REMARK  121  A    between atoms: _293  and  _295
REMARK  122  A    between atoms: _295  and  _296
REMARK  123  A    between atoms: _295  and  _298
REMARK  124  A    between atoms: _298  and  _299
REMARK  125  A    between atoms: _304  and  _305
REMARK  126  A    between atoms: _307  and  _309
REMARK  127  A    between atoms: _309  and  _310
REMARK  128  A    between atoms: _309  and  _312
REMARK  129  A    between atoms: _312  and  _313
REMARK  130  A    between atoms: ZN_323  and  _327
REMARK  131  A    between atoms: MG_324  and  _327
REMARK                            x       y       z     vdW  Elec       q    Type
REMARK                         _______ _______ _______ _____ _____    ______ ____
ROOT
ATOM      1  CA  THR A   1       1.008   3.797  47.999  0.00  0.00    +0.160 C 
ENDROOT
BRANCH   1   2
ATOM      2  N   THR A   1       1.254   2.638  48.847  0.00  0.00    -0.237 NA
ATOM      3  H   THR A   1       0.711   1.766  48.684  0.00  0.00    +0.142 HD
ENDBRANCH   1   2
BRANCH   1   4
ATOM      4  C   THR A   1       0.576   4.974  48.861  0.00  0.00    +0.227 C 
ATOM      5  O   THR A   1       1.124   6.065  48.719  0.00  0.00    -0.287 OA
ENDBRANCH   1   4
BRANCH   1   6
ATOM      6  CB  THR A   1      -0.096   3.519  46.937  0.00  0.00    +0.134 C 
ATOM      7  CG2 THR A   1      -0.203   4.649  45.916  0.00  0.00    +0.034 C 
BRANCH   6   8
ATOM      8  OG1 THR A   1       0.180   2.291  46.256  0.00  0.00    -0.383 OA
ATOM      9  HG1 THR A   1       1.059   2.356  45.805  0.00  0.00    +0.210 HD
ENDBRANCH   6   8
ENDBRANCH   1   6
TORSDOF 4
REMARK  Name = ../refined-set-2016/5c1w/5c1w_pocket.pdb
REMARK  131 active torsions:
REMARK  status: ('A' for Active; 'I' for Inactive)
REMARK    1  A    between atoms: _1  and  _3
REMARK    2  A    between atoms: _3  and  _4
REMARK    3  A    between atoms: _3  and  _6
REMARK    4  A    between atoms: _6  and  _7
REMARK    5  A    between atoms: _12  and  _13
REMARK    6  A    between atoms: _15  and  _17
REMARK    7  A    between atoms: _17  and  _18
REMARK    8  A    between atoms: _17  and  _20
REMARK    9  A    between atoms: _20  and  _21
REMARK   10  A    between atoms: _26  and  _28
REMARK   11  A    between atoms: _28  and  _29
REMARK   12  A    between atoms: _28  and  _31
REMARK   13  A    between atoms: _31  and  _32
REMARK   14  A    between atoms: _36  and  ZN_323
REMARK   15  A    between atoms: _37  and  _39
REMARK   16  A    between atoms: _39  and  _40
REMARK   17  A    between atoms: _39  and  _42
REMARK   18  A    between atoms: _42  and  _43
REMARK   19  A    between atoms: _46  and  _48
REMARK   20  A    between atoms: _48  and  _49
REMARK   21  A    between atoms: _48  and  _51
REMARK   22  A    between atoms: _51  and  _52
REMARK   23  A    between atoms: _55  and  _57
REMARK   24  A    between atoms: _57  and  _58
REMARK   25  A    between atoms: _57  and  _60
REMARK   26  A    between atoms: _60  and  _61
REMARK   27  A    between atoms: _64  and  _66
REMARK   28  A    between atoms: _66  and  _67
REMARK   29  A    between atoms: _66  and  _69
REMARK   30  A    between atoms: _71  and  _73
REMARK   31  A    between atoms: _73  and  _74
REMARK   32  A    between atoms: _73  and  _76
REMARK   33  A    between atoms: _76  and  _77
REMARK   34  A    between atoms: _77  and  _78
REMARK   35  A    between atoms: _78  and  ZN_323
REMARK   36  A    between atoms: _80  and  _82
REMARK   37  A    between atoms: _82  and  _83
REMARK   38  A    between atoms: _82  and  _85
REMARK   39  A    between atoms: _85  and  _86
REMARK   40  A    between atoms: _89  and  _91
REMARK   41  A    between atoms: _91  and  _92
REMARK   42  A    between atoms: _91  and  _94
REMARK   43  A    between atoms: _96  and  _98
REMARK   44  A    between atoms: _98  and  _99
REMARK   45  A    between atoms: _98  and  _101
REMARK   46  A    between atoms: _101  and  _102
REMARK   47  A    between atoms: _104  and  _106
REMARK   48  A    between atoms: _106  and  _107
REMARK   49  A    between atoms: _106  and  _109
REMARK   50  A    between atoms: _112  and  _114
REMARK   51  A    between atoms: _114  and  _115
REMARK   52  A    between atoms: _114  and  _117
REMARK   53  A    between atoms: _117  and  _118
REMARK   54  A    between atoms: _121  and  _123
REMARK   55  A    between atoms: _123  and  _124
REMARK   56  A    between atoms: _123  and  _126
REMARK   57  A    between atoms: _126  and  _127
REMARK   58  A    between atoms: _130  and  _132
REMARK   59  A    between atoms: _132  and  _133
REMARK   60  A    between atoms: _132  and  _135
REMARK   61  A    between atoms: _135  and  _136
REMARK   62  A    between atoms: _139  and  _141
REMARK   63  A    between atoms: _141  and  _142
REMARK   64  A    between atoms: _145  and  _147
REMARK   65  A    between atoms: _147  and  _148
REMARK   66  A    between atoms: _147  and  _150
REMARK   67  A    between atoms: _150  and  _151
REMARK   68  A    between atoms: _154  and  _156
REMARK   69  A    between atoms: _156  and  _157
REMARK   70  A    between atoms: _156  and  _159
REMARK   71  A    between atoms: _159  and  _160
REMARK   72  A    between atoms: _165  and  _166
REMARK   73  A    between atoms: _168  and  _170
REMARK   74  A    between atoms: _170  and  _171
REMARK   75  A    between atoms: _170  and  _173
REMARK   76  A    between atoms: _173  and  _174
REMARK   77  A    between atoms: _180  and  _182
REMARK   78  A    between atoms: _182  and  _183
REMARK   79  A    between atoms: _182  and  _185
REMARK   80  A    between atoms: _185  and  _186
REMARK   81  A    between atoms: _196  and  _198
REMARK   82  A    between atoms: _198  and  _199
REMARK   83  A    between atoms: _198  and  _201
REMARK   84  A    between atoms: _201  and  _202
REMARK   85  A    between atoms: _202  and  _203
REMARK   86  A    between atoms: _205  and  _207
REMARK   87  A    between atoms: _207  and  _208
REMARK   88  A    between atoms: _207  and  _210
REMARK   89  A    between atoms: _210  and  _211
REMARK   90  A    between atoms: _211  and  _212
REMARK   91  A    between atoms: _214  and  _216
REMARK   92  A    between atoms: _216  and  _217
REMARK   93  A    between atoms: _216  and  _219
REMARK   94  A    between atoms: _222  and  _224
REMARK   95  A    between atoms: _224  and  _225
REMARK   96  A    between atoms: _227  and  _229
REMARK   97  A    between atoms: _229  and  _230
REMARK   98  A    between atoms: _229  and  _232
REMARK   99  A    between atoms: _232  and  _233
REMARK  100  A    between atoms: _233  and  _234
REMARK  101  A    between atoms: _239  and  _241
REMARK  102  A    between atoms: _241  and  _242
REMARK  103  A    between atoms: _241  and  _244
REMARK  104  A    between atoms: _244  and  _245
REMARK  105  A    between atoms: _248  and  _250
REMARK  106  A    between atoms: _250  and  _251
REMARK  107  A    between atoms: _253  and  _255
REMARK  108  A    between atoms: _255  and  _256
REMARK  109  A    between atoms: _255  and  _258
REMARK  110  A    between atoms: _258  and  _259
REMARK  111  A    between atoms: _265  and  _267
REMARK  112  A    between atoms: _267  and  _268
REMARK  113  A    between atoms: _267  and  _270
REMARK  114  A    between atoms: _270  and  _271
REMARK  115  A    between atoms: _276  and  _277
REMARK  116  A    between atoms: _279  and  _281
REMARK  117  A    between atoms: _281  and  _282
REMARK  118  A    between atoms: _281  and  _284
REMARK  119  A    between atoms: _287  and  _289
REMARK  120  A    between atoms: _289  and  _290
REMARK  121  A    between atoms: _293  and  _295
REMARK  122  A    between atoms: _295  and  _296
REMARK  123  A    between atoms: _295  and  _298
REMARK  124  A    between atoms: _298  and  _299
REMARK  125  A    between atoms: _304  and  _305
REMARK  126  A    between atoms: _307  and  _309
REMARK  127  A    between atoms: _309  and  _310
REMARK  128  A    between atoms: _309  and  _312
REMARK  129  A    between atoms: _312  and  _313
REMARK  130  A    between atoms: ZN_323  and  _327
REMARK  131  A    between atoms: MG_324  and  _327
REMARK                            x       y       z     vdW  Elec       q    Type
REMARK                         _______ _______ _______ _____ _____    ______ ____
ROOT
ATOM      1  CA  THR A   1       2.345  19.817  51.134  0.00  0.00    +0.160 C 
ENDROOT
BRANCH   1   2
ATOM      2  N   THR A   1       2.586  20.448  52.440  0.00  0.00    -0.237 NA
ATOM      3  H   THR A   1       1.763  20.691  53.028  0.00  0.00    +0.142 HD
ENDBRANCH   1   2
BRANCH   1   4
ATOM      4  CB  THR A   1       0.834  19.678  50.916  0.00  0.00    +0.134 C 
ATOM      5  CG2 THR A   1       0.496  19.210  49.501  0.00  0.00    +0.034 C 
BRANCH   4   6
ATOM      6  OG1 THR A   1       0.327  18.792  51.916  0.00  0.00    -0.383 OA
ATOM      7  HG1 THR A   1       0.769  17.911  51.829  0.00  0.00    +0.210 HD
ENDBRANCH   4   6
ENDBRANCH   1   4
BRANCH   1   8
ATOM      8  C   THR A   1       3.016  20.638  49.984  0.00  0.00    +0.227 C 
ATOM      9  O   THR A   1       3.697  20.055  49.125  0.00  0.00    -0.287 OA
ENDBRANCH   1   8
TORSDOF 4
REMARK  Name = ../refined-set-2016/5c1w/5c1w_pocket.pdb
REMARK  131 active torsions:
REMARK  status: ('A' for Active; 'I' for Inactive)
REMARK    1  A    between atoms: _1  and  _3
REMARK    2  A    between atoms: _3  and  _4
REMARK    3  A    between atoms: _3  and  _6
REMARK    4  A    between atoms: _6  and  _7
REMARK    5  A    between atoms: _12  and  _13
REMARK    6  A    between atoms: _15  and  _17
REMARK    7  A    between atoms: _17  and  _18
REMARK    8  A    between atoms: _17  and  _20
REMARK    9  A    between atoms: _20  and  _21
REMARK   10  A    between atoms: _26  and  _28
REMARK   11  A    between atoms: _28  and  _29
REMARK   12  A    between atoms: _28  and  _31
REMARK   13  A    between atoms: _31  and  _32
REMARK   14  A    between atoms: _36  and  ZN_323
REMARK   15  A    between atoms: _37  and  _39
REMARK   16  A    between atoms: _39  and  _40
REMARK   17  A    between atoms: _39  and  _42
REMARK   18  A    between atoms: _42  and  _43
REMARK   19  A    between atoms: _46  and  _48
REMARK   20  A    between atoms: _48  and  _49
REMARK   21  A    between atoms: _48  and  _51
REMARK   22  A    between atoms: _51  and  _52
REMARK   23  A    between atoms: _55  and  _57
REMARK   24  A    between atoms: _57  and  _58
REMARK   25  A    between atoms: _57  and  _60
REMARK   26  A    between atoms: _60  and  _61
REMARK   27  A    between atoms: _64  and  _66
REMARK   28  A    between atoms: _66  and  _67
REMARK   29  A    between atoms: _66  and  _69
REMARK   30  A    between atoms: _71  and  _73
REMARK   31  A    between atoms: _73  and  _74
REMARK   32  A    between atoms: _73  and  _76
REMARK   33  A    between atoms: _76  and  _77
REMARK   34  A    between atoms: _77  and  _78
REMARK   35  A    between atoms: _78  and  ZN_323
REMARK   36  A    between atoms: _80  and  _82
REMARK   37  A    between atoms: _82  and  _83
REMARK   38  A    between atoms: _82  and  _85
REMARK   39  A    between atoms: _85  and  _86
REMARK   40  A    between atoms: _89  and  _91
REMARK   41  A    between atoms: _91  and  _92
REMARK   42  A    between atoms: _91  and  _94
REMARK   43  A    between atoms: _96  and  _98
REMARK   44  A    between atoms: _98  and  _99
REMARK   45  A    between atoms: _98  and  _101
REMARK   46  A    between atoms: _101  and  _102
REMARK   47  A    between atoms: _104  and  _106
REMARK   48  A    between atoms: _106  and  _107
REMARK   49  A    between atoms: _106  and  _109
REMARK   50  A    between atoms: _112  and  _114
REMARK   51  A    between atoms: _114  and  _115
REMARK   52  A    between atoms: _114  and  _117
REMARK   53  A    between atoms: _117  and  _118
REMARK   54  A    between atoms: _121  and  _123
REMARK   55  A    between atoms: _123  and  _124
REMARK   56  A    between atoms: _123  and  _126
REMARK   57  A    between atoms: _126  and  _127
REMARK   58  A    between atoms: _130  and  _132
REMARK   59  A    between atoms: _132  and  _133
REMARK   60  A    between atoms: _132  and  _135
REMARK   61  A    between atoms: _135  and  _136
REMARK   62  A    between atoms: _139  and  _141
REMARK   63  A    between atoms: _141  and  _142
REMARK   64  A    between atoms: _145  and  _147
REMARK   65  A    between atoms: _147  and  _148
REMARK   66  A    between atoms: _147  and  _150
REMARK   67  A    between atoms: _150  and  _151
REMARK   68  A    between atoms: _154  and  _156
REMARK   69  A    between atoms: _156  and  _157
REMARK   70  A    between atoms: _156  and  _159
REMARK   71  A    between atoms: _159  and  _160
REMARK   72  A    between atoms: _165  and  _166
REMARK   73  A    between atoms: _168  and  _170
REMARK   74  A    between atoms: _170  and  _171
REMARK   75  A    between atoms: _170  and  _173
REMARK   76  A    between atoms: _173  and  _174
REMARK   77  A    between atoms: _180  and  _182
REMARK   78  A    between atoms: _182  and  _183
REMARK   79  A    between atoms: _182  and  _185
REMARK   80  A    between atoms: _185  and  _186
REMARK   81  A    between atoms: _196  and  _198
REMARK   82  A    between atoms: _198  and  _199
REMARK   83  A    between atoms: _198  and  _201
REMARK   84  A    between atoms: _201  and  _202
REMARK   85  A    between atoms: _202  and  _203
REMARK   86  A    between atoms: _205  and  _207
REMARK   87  A    between atoms: _207  and  _208
REMARK   88  A    between atoms: _207  and  _210
REMARK   89  A    between atoms: _210  and  _211
REMARK   90  A    between atoms: _211  and  _212
REMARK   91  A    between atoms: _214  and  _216
REMARK   92  A    between atoms: _216  and  _217
REMARK   93  A    between atoms: _216  and  _219
REMARK   94  A    between atoms: _222  and  _224
REMARK   95  A    between atoms: _224  and  _225
REMARK   96  A    between atoms: _227  and  _229
REMARK   97  A    between atoms: _229  and  _230
REMARK   98  A    between atoms: _229  and  _232
REMARK   99  A    between atoms: _232  and  _233
REMARK  100  A    between atoms: _233  and  _234
REMARK  101  A    between atoms: _239  and  _241
REMARK  102  A    between atoms: _241  and  _242
REMARK  103  A    between atoms: _241  and  _244
REMARK  104  A    between atoms: _244  and  _245
REMARK  105  A    between atoms: _248  and  _250
REMARK  106  A    between atoms: _250  and  _251
REMARK  107  A    between atoms: _253  and  _255
REMARK  108  A    between atoms: _255  and  _256
REMARK  109  A    between atoms: _255  and  _258
REMARK  110  A    between atoms: _258  and  _259
REMARK  111  A    between atoms: _265  and  _267
REMARK  112  A    between atoms: _267  and  _268
REMARK  113  A    between atoms: _267  and  _270
REMARK  114  A    between atoms: _270  and  _271
REMARK  115  A    between atoms: _276  and  _277
REMARK  116  A    between atoms: _279  and  _281
REMARK  117  A    between atoms: _281  and  _282
REMARK  118  A    between atoms: _281  and  _284
REMARK  119  A    between atoms: _287  and  _289
REMARK  120  A    between atoms: _289  and  _290
REMARK  121  A    between atoms: _293  and  _295
REMARK  122  A    between atoms: _295  and  _296
REMARK  123  A    between atoms: _295  and  _298
REMARK  124  A    between atoms: _298  and  _299
REMARK  125  A    between atoms: _304  and  _305
REMARK  126  A    between atoms: _307  and  _309
REMARK  127  A    between atoms: _309  and  _310
REMARK  128  A    between atoms: _309  and  _312
REMARK  129  A    between atoms: _312  and  _313
REMARK  130  A    between atoms: ZN_323  and  _327
REMARK  131  A    between atoms: MG_324  and  _327
REMARK                            x       y       z     vdW  Elec       q    Type
REMARK                         _______ _______ _______ _____ _____    ______ ____
ROOT
ATOM      1  C   THR A   1       7.232  18.932  48.087  0.00  0.00    +0.241 C 
ATOM      2  N   ALA A   2       6.180  19.548  47.521  0.00  0.00    -0.298 N 
ATOM      3  H   ALA A   2       5.483  20.024  48.129  0.00  0.00    +0.150 HD
ATOM      4  O   THR A   1       8.092  18.355  47.424  0.00  0.00    -0.274 OA
ENDROOT
BRANCH   2   5
ATOM      5  CA  ALA A   2       5.991  19.565  46.063  0.00  0.00    +0.137 C 
ATOM      6  CB  ALA A   2       4.697  20.309  45.719  0.00  0.00    +0.030 C 
BRANCH   5   7
ATOM      7  C   ALA A   2       7.191  20.258  45.423  0.00  0.00    +0.227 C 
ATOM      8  O   ALA A   2       7.650  19.815  44.366  0.00  0.00    -0.286 OA
ENDBRANCH   5   7
ENDBRANCH   2   5
BRANCH   1   9
ATOM      9  CA  THR A   1       7.351  19.001  49.619  0.00  0.00    +0.172 C 
BRANCH   9  10
ATOM     10  N   THR A   1       6.915  20.324  50.117  0.00  0.00    -0.236 NA
ATOM     11  H   THR A   1       6.042  20.388  50.679  0.00  0.00    +0.142 HD
ENDBRANCH   9  10
BRANCH   9  12
ATOM     12  CB  THR A   1       6.632  17.855  50.341  0.00  0.00    +0.135 C 
ATOM     13  CG2 THR A   1       7.099  16.501  49.854  0.00  0.00    +0.034 C 
BRANCH  12  14
ATOM     14  OG1 THR A   1       6.899  17.973  51.748  0.00  0.00    -0.383 OA
ATOM     15  HG1 THR A   1       6.442  17.240  52.232  0.00  0.00    +0.210 HD
ENDBRANCH  12  14
ENDBRANCH   9  12
ENDBRANCH   1   9
TORSDOF 6
REMARK  Name = ../refined-set-2016/5c1w/5c1w_pocket.pdb
REMARK  131 active torsions:
REMARK  status: ('A' for Active; 'I' for Inactive)
REMARK    1  A    between atoms: _1  and  _3
REMARK    2  A    between atoms: _3  and  _4
REMARK    3  A    between atoms: _3  and  _6
REMARK    4  A    between atoms: _6  and  _7
REMARK    5  A    between atoms: _12  and  _13
REMARK    6  A    between atoms: _15  and  _17
REMARK    7  A    between atoms: _17  and  _18
REMARK    8  A    between atoms: _17  and  _20
REMARK    9  A    between atoms: _20  and  _21
REMARK   10  A    between atoms: _26  and  _28
REMARK   11  A    between atoms: _28  and  _29
REMARK   12  A    between atoms: _28  and  _31
REMARK   13  A    between atoms: _31  and  _32
REMARK   14  A    between atoms: _36  and  ZN_323
REMARK   15  A    between atoms: _37  and  _39
REMARK   16  A    between atoms: _39  and  _40
REMARK   17  A    between atoms: _39  and  _42
REMARK   18  A    between atoms: _42  and  _43
REMARK   19  A    between atoms: _46  and  _48
REMARK   20  A    between atoms: _48  and  _49
REMARK   21  A    between atoms: _48  and  _51
REMARK   22  A    between atoms: _51  and  _52
REMARK   23  A    between atoms: _55  and  _57
REMARK   24  A    between atoms: _57  and  _58
REMARK   25  A    between atoms: _57  and  _60
REMARK   26  A    between atoms: _60  and  _61
REMARK   27  A    between atoms: _64  and  _66
REMARK   28  A    between atoms: _66  and  _67
REMARK   29  A    between atoms: _66  and  _69
REMARK   30  A    between atoms: _71  and  _73
REMARK   31  A    between atoms: _73  and  _74
REMARK   32  A    between atoms: _73  and  _76
REMARK   33  A    between atoms: _76  and  _77
REMARK   34  A    between atoms: _77  and  _78
REMARK   35  A    between atoms: _78  and  ZN_323
REMARK   36  A    between atoms: _80  and  _82
REMARK   37  A    between atoms: _82  and  _83
REMARK   38  A    between atoms: _82  and  _85
REMARK   39  A    between atoms: _85  and  _86
REMARK   40  A    between atoms: _89  and  _91
REMARK   41  A    between atoms: _91  and  _92
REMARK   42  A    between atoms: _91  and  _94
REMARK   43  A    between atoms: _96  and  _98
REMARK   44  A    between atoms: _98  and  _99
REMARK   45  A    between atoms: _98  and  _101
REMARK   46  A    between atoms: _101  and  _102
REMARK   47  A    between atoms: _104  and  _106
REMARK   48  A    between atoms: _106  and  _107
REMARK   49  A    between atoms: _106  and  _109
REMARK   50  A    between atoms: _112  and  _114
REMARK   51  A    between atoms: _114  and  _115
REMARK   52  A    between atoms: _114  and  _117
REMARK   53  A    between atoms: _117  and  _118
REMARK   54  A    between atoms: _121  and  _123
REMARK   55  A    between atoms: _123  and  _124
REMARK   56  A    between atoms: _123  and  _126
REMARK   57  A    between atoms: _126  and  _127
REMARK   58  A    between atoms: _130  and  _132
REMARK   59  A    between atoms: _132  and  _133
REMARK   60  A    between atoms: _132  and  _135
REMARK   61  A    between atoms: _135  and  _136
REMARK   62  A    between atoms: _139  and  _141
REMARK   63  A    between atoms: _141  and  _142
REMARK   64  A    between atoms: _145  and  _147
REMARK   65  A    between atoms: _147  and  _148
REMARK   66  A    between atoms: _147  and  _150
REMARK   67  A    between atoms: _150  and  _151
REMARK   68  A    between atoms: _154  and  _156
REMARK   69  A    between atoms: _156  and  _157
REMARK   70  A    between atoms: _156  and  _159
REMARK   71  A    between atoms: _159  and  _160
REMARK   72  A    between atoms: _165  and  _166
REMARK   73  A    between atoms: _168  and  _170
REMARK   74  A    between atoms: _170  and  _171
REMARK   75  A    between atoms: _170  and  _173
REMARK   76  A    between atoms: _173  and  _174
REMARK   77  A    between atoms: _180  and  _182
REMARK   78  A    between atoms: _182  and  _183
REMARK   79  A    between atoms: _182  and  _185
REMARK   80  A    between atoms: _185  and  _186
REMARK   81  A    between atoms: _196  and  _198
REMARK   82  A    between atoms: _198  and  _199
REMARK   83  A    between atoms: _198  and  _201
REMARK   84  A    between atoms: _201  and  _202
REMARK   85  A    between atoms: _202  and  _203
REMARK   86  A    between atoms: _205  and  _207
REMARK   87  A    between atoms: _207  and  _208
REMARK   88  A    between atoms: _207  and  _210
REMARK   89  A    between atoms: _210  and  _211
REMARK   90  A    between atoms: _211  and  _212
REMARK   91  A    between atoms: _214  and  _216
REMARK   92  A    between atoms: _216  and  _217
REMARK   93  A    between atoms: _216  and  _219
REMARK   94  A    between atoms: _222  and  _224
REMARK   95  A    between atoms: _224  and  _225
REMARK   96  A    between atoms: _227  and  _229
REMARK   97  A    between atoms: _229  and  _230
REMARK   98  A    between atoms: _229  and  _232
REMARK   99  A    between atoms: _232  and  _233
REMARK  100  A    between atoms: _233  and  _234
REMARK  101  A    between atoms: _239  and  _241
REMARK  102  A    between atoms: _241  and  _242
REMARK  103  A    between atoms: _241  and  _244
REMARK  104  A    between atoms: _244  and  _245
REMARK  105  A    between atoms: _248  and  _250
REMARK  106  A    between atoms: _250  and  _251
REMARK  107  A    between atoms: _253  and  _255
REMARK  108  A    between atoms: _255  and  _256
REMARK  109  A    between atoms: _255  and  _258
REMARK  110  A    between atoms: _258  and  _259
REMARK  111  A    between atoms: _265  and  _267
REMARK  112  A    between atoms: _267  and  _268
REMARK  113  A    between atoms: _267  and  _270
REMARK  114  A    between atoms: _270  and  _271
REMARK  115  A    between atoms: _276  and  _277
REMARK  116  A    between atoms: _279  and  _281
REMARK  117  A    between atoms: _281  and  _282
REMARK  118  A    between atoms: _281  and  _284
REMARK  119  A    between atoms: _287  and  _289
REMARK  120  A    between atoms: _289  and  _290
REMARK  121  A    between atoms: _293  and  _295
REMARK  122  A    between atoms: _295  and  _296
REMARK  123  A    between atoms: _295  and  _298
REMARK  124  A    between atoms: _298  and  _299
REMARK  125  A    between atoms: _304  and  _305
REMARK  126  A    between atoms: _307  and  _309
REMARK  127  A    between atoms: _309  and  _310
REMARK  128  A    between atoms: _309  and  _312
REMARK  129  A    between atoms: _312  and  _313
REMARK  130  A    between atoms: ZN_323  and  _327
REMARK  131  A    between atoms: MG_324  and  _327
REMARK                            x       y       z     vdW  Elec       q    Type
REMARK                         _______ _______ _______ _____ _____    ______ ____
ROOT
ATOM      1  CA  TYR A   2       9.757  19.041  41.204  0.00  0.00    +0.141 C 
ENDROOT
BRANCH   1   3
ATOM      2  C   ILE A   1       9.845  17.187  42.782  0.00  0.00    +0.238 C 
ATOM      3  N   TYR A   2       9.428  18.433  42.486  0.00  0.00    -0.298 N 
ATOM      4  H   TYR A   2       8.866  18.966  43.180  0.00  0.00    +0.150 HD
ATOM      5  O   ILE A   1      10.520  16.498  42.017  0.00  0.00    -0.274 OA
BRANCH   2   6
ATOM      6  CA  ILE A   1       9.434  16.652  44.141  0.00  0.00    +0.145 C 
BRANCH   6   7
ATOM      7  N   ILE A   1       9.835  17.613  45.180  0.00  0.00    -0.238 NA
ATOM      8  H   ILE A   1       9.108  17.963  45.836  0.00  0.00    +0.142 HD
ENDBRANCH   6   7
BRANCH   6   9
ATOM      9  CB  ILE A   1       7.908  16.309  44.230  0.00  0.00    +0.025 C 
ATOM     10  CG2 ILE A   1       7.408  15.501  43.023  0.00  0.00    +0.002 C 
BRANCH   9  11
ATOM     11  CG1 ILE A   1       7.640  15.544  45.561  0.00  0.00    +0.002 C 
ATOM     12  CD1 ILE A   1       6.163  15.510  46.093  0.00  0.00    +0.000 C 
ENDBRANCH   9  11
ENDBRANCH   6   9
ENDBRANCH   2   6
ENDBRANCH   1   3
BRANCH   1  13
ATOM     13  C   TYR A   2      11.258  19.341  41.050  0.00  0.00    +0.227 C 
ATOM     14  O   TYR A   2      11.764  19.100  39.949  0.00  0.00    -0.286 OA
ENDBRANCH   1  13
BRANCH   1  15
ATOM     15  CB  TYR A   2       8.866  20.248  40.919  0.00  0.00    +0.054 C 
BRANCH  15  16
ATOM     16  CG  TYR A   2       7.473  19.825  40.521  0.00  0.00    -0.020 A 
ATOM     17  CD2 TYR A   2       6.454  19.750  41.458  0.00  0.00    -0.001 A 
ATOM     18  CE2 TYR A   2       5.160  19.373  41.096  0.00  0.00    +0.036 A 
ATOM     19  CZ  TYR A   2       4.876  19.074  39.777  0.00  0.00    +0.134 A 
ATOM     20  CE1 TYR A   2       5.896  19.066  38.839  0.00  0.00    +0.036 A 
ATOM     21  CD1 TYR A   2       7.179  19.466  39.210  0.00  0.00    -0.001 A 
BRANCH  19  22
ATOM     22  OH  TYR A   2       3.609  18.685  39.445  0.00  0.00    -0.506 OA
ATOM     23  HH  TYR A   2       3.264  19.270  38.725  0.00  0.00    +0.292 HD
ENDBRANCH  19  22
ENDBRANCH  15  16
ENDBRANCH   1  15
TORSDOF 9
REMARK  Name = ../refined-set-2016/5c1w/5c1w_pocket.pdb
REMARK  131 active torsions:
REMARK  status: ('A' for Active; 'I' for Inactive)
REMARK    1  A    between atoms: _1  and  _3
REMARK    2  A    between atoms: _3  and  _4
REMARK    3  A    between atoms: _3  and  _6
REMARK    4  A    between atoms: _6  and  _7
REMARK    5  A    between atoms: _12  and  _13
REMARK    6  A    between atoms: _15  and  _17
REMARK    7  A    between atoms: _17  and  _18
REMARK    8  A    between atoms: _17  and  _20
REMARK    9  A    between atoms: _20  and  _21
REMARK   10  A    between atoms: _26  and  _28
REMARK   11  A    between atoms: _28  and  _29
REMARK   12  A    between atoms: _28  and  _31
REMARK   13  A    between atoms: _31  and  _32
REMARK   14  A    between atoms: _36  and  ZN_323
REMARK   15  A    between atoms: _37  and  _39
REMARK   16  A    between atoms: _39  and  _40
REMARK   17  A    between atoms: _39  and  _42
REMARK   18  A    between atoms: _42  and  _43
REMARK   19  A    between atoms: _46  and  _48
REMARK   20  A    between atoms: _48  and  _49
REMARK   21  A    between atoms: _48  and  _51
REMARK   22  A    between atoms: _51  and  _52
REMARK   23  A    between atoms: _55  and  _57
REMARK   24  A    between atoms: _57  and  _58
REMARK   25  A    between atoms: _57  and  _60
REMARK   26  A    between atoms: _60  and  _61
REMARK   27  A    between atoms: _64  and  _66
REMARK   28  A    between atoms: _66  and  _67
REMARK   29  A    between atoms: _66  and  _69
REMARK   30  A    between atoms: _71  and  _73
REMARK   31  A    between atoms: _73  and  _74
REMARK   32  A    between atoms: _73  and  _76
REMARK   33  A    between atoms: _76  and  _77
REMARK   34  A    between atoms: _77  and  _78
REMARK   35  A    between atoms: _78  and  ZN_323
REMARK   36  A    between atoms: _80  and  _82
REMARK   37  A    between atoms: _82  and  _83
REMARK   38  A    between atoms: _82  and  _85
REMARK   39  A    between atoms: _85  and  _86
REMARK   40  A    between atoms: _89  and  _91
REMARK   41  A    between atoms: _91  and  _92
REMARK   42  A    between atoms: _91  and  _94
REMARK   43  A    between atoms: _96  and  _98
REMARK   44  A    between atoms: _98  and  _99
REMARK   45  A    between atoms: _98  and  _101
REMARK   46  A    between atoms: _101  and  _102
REMARK   47  A    between atoms: _104  and  _106
REMARK   48  A    between atoms: _106  and  _107
REMARK   49  A    between atoms: _106  and  _109
REMARK   50  A    between atoms: _112  and  _114
REMARK   51  A    between atoms: _114  and  _115
REMARK   52  A    between atoms: _114  and  _117
REMARK   53  A    between atoms: _117  and  _118
REMARK   54  A    between atoms: _121  and  _123
REMARK   55  A    between atoms: _123  and  _124
REMARK   56  A    between atoms: _123  and  _126
REMARK   57  A    between atoms: _126  and  _127
REMARK   58  A    between atoms: _130  and  _132
REMARK   59  A    between atoms: _132  and  _133
REMARK   60  A    between atoms: _132  and  _135
REMARK   61  A    between atoms: _135  and  _136
REMARK   62  A    between atoms: _139  and  _141
REMARK   63  A    between atoms: _141  and  _142
REMARK   64  A    between atoms: _145  and  _147
REMARK   65  A    between atoms: _147  and  _148
REMARK   66  A    between atoms: _147  and  _150
REMARK   67  A    between atoms: _150  and  _151
REMARK   68  A    between atoms: _154  and  _156
REMARK   69  A    between atoms: _156  and  _157
REMARK   70  A    between atoms: _156  and  _159
REMARK   71  A    between atoms: _159  and  _160
REMARK   72  A    between atoms: _165  and  _166
REMARK   73  A    between atoms: _168  and  _170
REMARK   74  A    between atoms: _170  and  _171
REMARK   75  A    between atoms: _170  and  _173
REMARK   76  A    between atoms: _173  and  _174
REMARK   77  A    between atoms: _180  and  _182
REMARK   78  A    between atoms: _182  and  _183
REMARK   79  A    between atoms: _182  and  _185
REMARK   80  A    between atoms: _185  and  _186
REMARK   81  A    between atoms: _196  and  _198
REMARK   82  A    between atoms: _198  and  _199
REMARK   83  A    between atoms: _198  and  _201
REMARK   84  A    between atoms: _201  and  _202
REMARK   85  A    between atoms: _202  and  _203
REMARK   86  A    between atoms: _205  and  _207
REMARK   87  A    between atoms: _207  and  _208
REMARK   88  A    between atoms: _207  and  _210
REMARK   89  A    between atoms: _210  and  _211
REMARK   90  A    between atoms: _211  and  _212
REMARK   91  A    between atoms: _214  and  _216
REMARK   92  A    between atoms: _216  and  _217
REMARK   93  A    between atoms: _216  and  _219
REMARK   94  A    between atoms: _222  and  _224
REMARK   95  A    between atoms: _224  and  _225
REMARK   96  A    between atoms: _227  and  _229
REMARK   97  A    between atoms: _229  and  _230
REMARK   98  A    between atoms: _229  and  _232
REMARK   99  A    between atoms: _232  and  _233
REMARK  100  A    between atoms: _233  and  _234
REMARK  101  A    between atoms: _239  and  _241
REMARK  102  A    between atoms: _241  and  _242
REMARK  103  A    between atoms: _241  and  _244
REMARK  104  A    between atoms: _244  and  _245
REMARK  105  A    between atoms: _248  and  _250
REMARK  106  A    between atoms: _250  and  _251
REMARK  107  A    between atoms: _253  and  _255
REMARK  108  A    between atoms: _255  and  _256
REMARK  109  A    between atoms: _255  and  _258
REMARK  110  A    between atoms: _258  and  _259
REMARK  111  A    between atoms: _265  and  _267
REMARK  112  A    between atoms: _267  and  _268
REMARK  113  A    between atoms: _267  and  _270
REMARK  114  A    between atoms: _270  and  _271
REMARK  115  A    between atoms: _276  and  _277
REMARK  116  A    between atoms: _279  and  _281
REMARK  117  A    between atoms: _281  and  _282
REMARK  118  A    between atoms: _281  and  _284
REMARK  119  A    between atoms: _287  and  _289
REMARK  120  A    between atoms: _289  and  _290
REMARK  121  A    between atoms: _293  and  _295
REMARK  122  A    between atoms: _295  and  _296
REMARK  123  A    between atoms: _295  and  _298
REMARK  124  A    between atoms: _298  and  _299
REMARK  125  A    between atoms: _304  and  _305
REMARK  126  A    between atoms: _307  and  _309
REMARK  127  A    between atoms: _309  and  _310
REMARK  128  A    between atoms: _309  and  _312
REMARK  129  A    between atoms: _312  and  _313
REMARK  130  A    between atoms: ZN_323  and  _327
REMARK  131  A    between atoms: MG_324  and  _327
REMARK                            x       y       z     vdW  Elec       q    Type
REMARK                         _______ _______ _______ _____ _____    ______ ____
ROOT
ATOM      1  C   PHE A   1      12.986  16.734  37.449  0.00  0.00    +0.239 C 
ATOM      2  N   TRP A   2      13.142  18.024  37.830  0.00  0.00    -0.298 N 
ATOM      3  H   TRP A   2      12.784  18.326  38.759  0.00  0.00    +0.150 HD
ATOM      4  O   PHE A   1      13.362  16.299  36.364  0.00  0.00    -0.274 OA
ENDROOT
BRANCH   1   5
ATOM      5  CA  PHE A   1      12.294  15.788  38.416  0.00  0.00    +0.149 C 
BRANCH   5   6
ATOM      6  N   PHE A   1      12.671  16.032  39.803  0.00  0.00    -0.238 NA
ATOM      7  H   PHE A   1      11.942  16.282  40.502  0.00  0.00    +0.142 HD
ENDBRANCH   5   6
BRANCH   5   8
ATOM      8  CB  PHE A   1      10.781  15.847  38.237  0.00  0.00    +0.053 C 
BRANCH   8   9
ATOM      9  CG  PHE A   1      10.090  14.584  38.695  0.00  0.00    -0.020 A 
ATOM     10  CD2 PHE A   1       9.057  14.636  39.619  0.00  0.00    -0.004 A 
ATOM     11  CE2 PHE A   1       8.391  13.470  40.015  0.00  0.00    -0.000 A 
ATOM     12  CZ  PHE A   1       8.771  12.259  39.499  0.00  0.00    -0.000 A 
ATOM     13  CE1 PHE A   1       9.788  12.185  38.573  0.00  0.00    -0.000 A 
ATOM     14  CD1 PHE A   1      10.452  13.344  38.176  0.00  0.00    -0.004 A 
ENDBRANCH   8   9
ENDBRANCH   5   8
ENDBRANCH   1   5
BRANCH   2  15
ATOM     15  CA  TRP A   2      13.807  19.009  36.959  0.00  0.00    +0.141 C 
BRANCH  15  16
ATOM     16  C   TRP A   2      15.266  18.686  36.738  0.00  0.00    +0.227 C 
ATOM     17  O   TRP A   2      15.764  18.930  35.633  0.00  0.00    -0.286 OA
ENDBRANCH  15  16
BRANCH  15  18
ATOM     18  CB  TRP A   2      13.625  20.430  37.468  0.00  0.00    +0.056 C 
BRANCH  18  19
ATOM     19  CG  TRP A   2      12.209  20.904  37.412  0.00  0.00    -0.002 A 
ATOM     20  CD2 TRP A   2      11.660  21.984  38.156  0.00  0.00    +0.013 A 
ATOM     21  CE3 TRP A   2      12.185  22.869  39.102  0.00  0.00    +0.001 A 
ATOM     22  CZ3 TRP A   2      11.332  23.803  39.684  0.00  0.00    +0.000 A 
ATOM     23  CH2 TRP A   2       9.979  23.858  39.325  0.00  0.00    +0.001 A 
ATOM     24  CZ2 TRP A   2       9.445  23.009  38.394  0.00  0.00    +0.017 A 
ATOM     25  CE2 TRP A   2      10.290  22.068  37.825  0.00  0.00    +0.056 A 
ATOM     26  NE1 TRP A   2      10.023  21.073  36.933  0.00  0.00    -0.352 N 
ATOM     27  HE1 TRP A   2       9.092  20.865  36.519  0.00  0.00    +0.166 HD
ATOM     28  CD1 TRP A   2      11.185  20.389  36.670  0.00  0.00    +0.068 A 
ENDBRANCH  18  19
ENDBRANCH  15  18
ENDBRANCH   2  15
TORSDOF 8
REMARK  Name = ../refined-set-2016/5c1w/5c1w_pocket.pdb
REMARK  131 active torsions:
REMARK  status: ('A' for Active; 'I' for Inactive)
REMARK    1  A    between atoms: _1  and  _3
REMARK    2  A    between atoms: _3  and  _4
REMARK    3  A    between atoms: _3  and  _6
REMARK    4  A    between atoms: _6  and  _7
REMARK    5  A    between atoms: _12  and  _13
REMARK    6  A    between atoms: _15  and  _17
REMARK    7  A    between atoms: _17  and  _18
REMARK    8  A    between atoms: _17  and  _20
REMARK    9  A    between atoms: _20  and  _21
REMARK   10  A    between atoms: _26  and  _28
REMARK   11  A    between atoms: _28  and  _29
REMARK   12  A    between atoms: _28  and  _31
REMARK   13  A    between atoms: _31  and  _32
REMARK   14  A    between atoms: _36  and  ZN_323
REMARK   15  A    between atoms: _37  and  _39
REMARK   16  A    between atoms: _39  and  _40
REMARK   17  A    between atoms: _39  and  _42
REMARK   18  A    between atoms: _42  and  _43
REMARK   19  A    between atoms: _46  and  _48
REMARK   20  A    between atoms: _48  and  _49
REMARK   21  A    between atoms: _48  and  _51
REMARK   22  A    between atoms: _51  and  _52
REMARK   23  A    between atoms: _55  and  _57
REMARK   24  A    between atoms: _57  and  _58
REMARK   25  A    between atoms: _57  and  _60
REMARK   26  A    between atoms: _60  and  _61
REMARK   27  A    between atoms: _64  and  _66
REMARK   28  A    between atoms: _66  and  _67
REMARK   29  A    between atoms: _66  and  _69
REMARK   30  A    between atoms: _71  and  _73
REMARK   31  A    between atoms: _73  and  _74
REMARK   32  A    between atoms: _73  and  _76
REMARK   33  A    between atoms: _76  and  _77
REMARK   34  A    between atoms: _77  and  _78
REMARK   35  A    between atoms: _78  and  ZN_323
REMARK   36  A    between atoms: _80  and  _82
REMARK   37  A    between atoms: _82  and  _83
REMARK   38  A    between atoms: _82  and  _85
REMARK   39  A    between atoms: _85  and  _86
REMARK   40  A    between atoms: _89  and  _91
REMARK   41  A    between atoms: _91  and  _92
REMARK   42  A    between atoms: _91  and  _94
REMARK   43  A    between atoms: _96  and  _98
REMARK   44  A    between atoms: _98  and  _99
REMARK   45  A    between atoms: _98  and  _101
REMARK   46  A    between atoms: _101  and  _102
REMARK   47  A    between atoms: _104  and  _106
REMARK   48  A    between atoms: _106  and  _107
REMARK   49  A    between atoms: _106  and  _109
REMARK   50  A    between atoms: _112  and  _114
REMARK   51  A    between atoms: _114  and  _115
REMARK   52  A    between atoms: _114  and  _117
REMARK   53  A    between atoms: _117  and  _118
REMARK   54  A    between atoms: _121  and  _123
REMARK   55  A    between atoms: _123  and  _124
REMARK   56  A    between atoms: _123  and  _126
REMARK   57  A    between atoms: _126  and  _127
REMARK   58  A    between atoms: _130  and  _132
REMARK   59  A    between atoms: _132  and  _133
REMARK   60  A    between atoms: _132  and  _135
REMARK   61  A    between atoms: _135  and  _136
REMARK   62  A    between atoms: _139  and  _141
REMARK   63  A    between atoms: _141  and  _142
REMARK   64  A    between atoms: _145  and  _147
REMARK   65  A    between atoms: _147  and  _148
REMARK   66  A    between atoms: _147  and  _150
REMARK   67  A    between atoms: _150  and  _151
REMARK   68  A    between atoms: _154  and  _156
REMARK   69  A    between atoms: _156  and  _157
REMARK   70  A    between atoms: _156  and  _159
REMARK   71  A    between atoms: _159  and  _160
REMARK   72  A    between atoms: _165  and  _166
REMARK   73  A    between atoms: _168  and  _170
REMARK   74  A    between atoms: _170  and  _171
REMARK   75  A    between atoms: _170  and  _173
REMARK   76  A    between atoms: _173  and  _174
REMARK   77  A    between atoms: _180  and  _182
REMARK   78  A    between atoms: _182  and  _183
REMARK   79  A    between atoms: _182  and  _185
REMARK   80  A    between atoms: _185  and  _186
REMARK   81  A    between atoms: _196  and  _198
REMARK   82  A    between atoms: _198  and  _199
REMARK   83  A    between atoms: _198  and  _201
REMARK   84  A    between atoms: _201  and  _202
REMARK   85  A    between atoms: _202  and  _203
REMARK   86  A    between atoms: _205  and  _207
REMARK   87  A    between atoms: _207  and  _208
REMARK   88  A    between atoms: _207  and  _210
REMARK   89  A    between atoms: _210  and  _211
REMARK   90  A    between atoms: _211  and  _212
REMARK   91  A    between atoms: _214  and  _216
REMARK   92  A    between atoms: _216  and  _217
REMARK   93  A    between atoms: _216  and  _219
REMARK   94  A    between atoms: _222  and  _224
REMARK   95  A    between atoms: _224  and  _225
REMARK   96  A    between atoms: _227  and  _229
REMARK   97  A    between atoms: _229  and  _230
REMARK   98  A    between atoms: _229  and  _232
REMARK   99  A    between atoms: _232  and  _233
REMARK  100  A    between atoms: _233  and  _234
REMARK  101  A    between atoms: _239  and  _241
REMARK  102  A    between atoms: _241  and  _242
REMARK  103  A    between atoms: _241  and  _244
REMARK  104  A    between atoms: _244  and  _245
REMARK  105  A    between atoms: _248  and  _250
REMARK  106  A    between atoms: _250  and  _251
REMARK  107  A    between atoms: _253  and  _255
REMARK  108  A    between atoms: _255  and  _256
REMARK  109  A    between atoms: _255  and  _258
REMARK  110  A    between atoms: _258  and  _259
REMARK  111  A    between atoms: _265  and  _267
REMARK  112  A    between atoms: _267  and  _268
REMARK  113  A    between atoms: _267  and  _270
REMARK  114  A    between atoms: _270  and  _271
REMARK  115  A    between atoms: _276  and  _277
REMARK  116  A    between atoms: _279  and  _281
REMARK  117  A    between atoms: _281  and  _282
REMARK  118  A    between atoms: _281  and  _284
REMARK  119  A    between atoms: _287  and  _289
REMARK  120  A    between atoms: _289  and  _290
REMARK  121  A    between atoms: _293  and  _295
REMARK  122  A    between atoms: _295  and  _296
REMARK  123  A    between atoms: _295  and  _298
REMARK  124  A    between atoms: _298  and  _299
REMARK  125  A    between atoms: _304  and  _305
REMARK  126  A    between atoms: _307  and  _309
REMARK  127  A    between atoms: _309  and  _310
REMARK  128  A    between atoms: _309  and  _312
REMARK  129  A    between atoms: _312  and  _313
REMARK  130  A    between atoms: ZN_323  and  _327
REMARK  131  A    between atoms: MG_324  and  _327
REMARK                            x       y       z     vdW  Elec       q    Type
REMARK                         _______ _______ _______ _____ _____    ______ ____
ROOT
ATOM      1  C   MET A   1       8.082  17.805  34.675  0.00  0.00    +0.238 C 
ATOM      2  O   MET A   1       8.398  18.319  35.740  0.00  0.00    -0.274 OA
ATOM      3  N   MET A   2       8.990  17.276  33.831  0.00  0.00    -0.298 N 
ATOM      4  H   MET A   2       8.654  16.869  32.935  0.00  0.00    +0.150 HD
ENDROOT
BRANCH   1   5
ATOM      5  CA  MET A   1       6.596  17.793  34.254  0.00  0.00    +0.146 C 
BRANCH   5   6
ATOM      6  N   MET A   1       6.413  17.828  32.803  0.00  0.00    -0.238 NA
ATOM      7  H   MET A   1       5.920  17.044  32.329  0.00  0.00    +0.142 HD
ENDBRANCH   5   6
BRANCH   5   8
ATOM      8  CB  MET A   1       5.834  16.593  34.838  0.00  0.00    +0.038 C 
BRANCH   8   9
ATOM      9  CG  MET A   1       6.039  16.383  36.324  0.00  0.00    +0.060 C 
BRANCH   9  10
ATOM     10  SD  MET A   1       5.850  14.635  36.774  0.00  0.00    -0.139 S 
ATOM     11  CE  MET A   1       7.391  14.046  36.328  0.00  0.00    +0.069 C 
ENDBRANCH   9  10
ENDBRANCH   8   9
ENDBRANCH   5   8
ENDBRANCH   1   5
BRANCH   3  12
ATOM     12  CA  MET A   2      10.430  17.247  34.116  0.00  0.00    +0.138 C 
BRANCH  12  13
ATOM     13  C   MET A   2      11.201  18.425  33.522  0.00  0.00    +0.227 C 
ATOM     14  O   MET A   2      12.431  18.515  33.641  0.00  0.00    -0.286 OA
ENDBRANCH  12  13
BRANCH  12  15
ATOM     15  CB  MET A   2      11.053  15.907  33.681  0.00  0.00    +0.039 C 
BRANCH  15  16
ATOM     16  CG  MET A   2      10.464  14.725  34.404  0.00  0.00    +0.060 C 
BRANCH  16  17
ATOM     17  SD  MET A   2      11.464  13.250  34.055  0.00  0.00    -0.139 S 
ATOM     18  CE  MET A   2      10.349  11.962  34.656  0.00  0.00    +0.069 C 
ENDBRANCH  16  17
ENDBRANCH  15  16
ENDBRANCH  12  15
ENDBRANCH   3  12
TORSDOF 10
REMARK  Name = ../refined-set-2016/5c1w/5c1w_pocket.pdb
REMARK  131 active torsions:
REMARK  status: ('A' for Active; 'I' for Inactive)
REMARK    1  A    between atoms: _1  and  _3
REMARK    2  A    between atoms: _3  and  _4
REMARK    3  A    between atoms: _3  and  _6
REMARK    4  A    between atoms: _6  and  _7
REMARK    5  A    between atoms: _12  and  _13
REMARK    6  A    between atoms: _15  and  _17
REMARK    7  A    between atoms: _17  and  _18
REMARK    8  A    between atoms: _17  and  _20
REMARK    9  A    between atoms: _20  and  _21
REMARK   10  A    between atoms: _26  and  _28
REMARK   11  A    between atoms: _28  and  _29
REMARK   12  A    between atoms: _28  and  _31
REMARK   13  A    between atoms: _31  and  _32
REMARK   14  A    between atoms: _36  and  ZN_323
REMARK   15  A    between atoms: _37  and  _39
REMARK   16  A    between atoms: _39  and  _40
REMARK   17  A    between atoms: _39  and  _42
REMARK   18  A    between atoms: _42  and  _43
REMARK   19  A    between atoms: _46  and  _48
REMARK   20  A    between atoms: _48  and  _49
REMARK   21  A    between atoms: _48  and  _51
REMARK   22  A    between atoms: _51  and  _52
REMARK   23  A    between atoms: _55  and  _57
REMARK   24  A    between atoms: _57  and  _58
REMARK   25  A    between atoms: _57  and  _60
REMARK   26  A    between atoms: _60  and  _61
REMARK   27  A    between atoms: _64  and  _66
REMARK   28  A    between atoms: _66  and  _67
REMARK   29  A    between atoms: _66  and  _69
REMARK   30  A    between atoms: _71  and  _73
REMARK   31  A    between atoms: _73  and  _74
REMARK   32  A    between atoms: _73  and  _76
REMARK   33  A    between atoms: _76  and  _77
REMARK   34  A    between atoms: _77  and  _78
REMARK   35  A    between atoms: _78  and  ZN_323
REMARK   36  A    between atoms: _80  and  _82
REMARK   37  A    between atoms: _82  and  _83
REMARK   38  A    between atoms: _82  and  _85
REMARK   39  A    between atoms: _85  and  _86
REMARK   40  A    between atoms: _89  and  _91
REMARK   41  A    between atoms: _91  and  _92
REMARK   42  A    between atoms: _91  and  _94
REMARK   43  A    between atoms: _96  and  _98
REMARK   44  A    between atoms: _98  and  _99
REMARK   45  A    between atoms: _98  and  _101
REMARK   46  A    between atoms: _101  and  _102
REMARK   47  A    between atoms: _104  and  _106
REMARK   48  A    between atoms: _106  and  _107
REMARK   49  A    between atoms: _106  and  _109
REMARK   50  A    between atoms: _112  and  _114
REMARK   51  A    between atoms: _114  and  _115
REMARK   52  A    between atoms: _114  and  _117
REMARK   53  A    between atoms: _117  and  _118
REMARK   54  A    between atoms: _121  and  _123
REMARK   55  A    between atoms: _123  and  _124
REMARK   56  A    between atoms: _123  and  _126
REMARK   57  A    between atoms: _126  and  _127
REMARK   58  A    between atoms: _130  and  _132
REMARK   59  A    between atoms: _132  and  _133
REMARK   60  A    between atoms: _132  and  _135
REMARK   61  A    between atoms: _135  and  _136
REMARK   62  A    between atoms: _139  and  _141
REMARK   63  A    between atoms: _141  and  _142
REMARK   64  A    between atoms: _145  and  _147
REMARK   65  A    between atoms: _147  and  _148
REMARK   66  A    between atoms: _147  and  _150
REMARK   67  A    between atoms: _150  and  _151
REMARK   68  A    between atoms: _154  and  _156
REMARK   69  A    between atoms: _156  and  _157
REMARK   70  A    between atoms: _156  and  _159
REMARK   71  A    between atoms: _159  and  _160
REMARK   72  A    between atoms: _165  and  _166
REMARK   73  A    between atoms: _168  and  _170
REMARK   74  A    between atoms: _170  and  _171
REMARK   75  A    between atoms: _170  and  _173
REMARK   76  A    between atoms: _173  and  _174
REMARK   77  A    between atoms: _180  and  _182
REMARK   78  A    between atoms: _182  and  _183
REMARK   79  A    between atoms: _182  and  _185
REMARK   80  A    between atoms: _185  and  _186
REMARK   81  A    between atoms: _196  and  _198
REMARK   82  A    between atoms: _198  and  _199
REMARK   83  A    between atoms: _198  and  _201
REMARK   84  A    between atoms: _201  and  _202
REMARK   85  A    between atoms: _202  and  _203
REMARK   86  A    between atoms: _205  and  _207
REMARK   87  A    between atoms: _207  and  _208
REMARK   88  A    between atoms: _207  and  _210
REMARK   89  A    between atoms: _210  and  _211
REMARK   90  A    between atoms: _211  and  _212
REMARK   91  A    between atoms: _214  and  _216
REMARK   92  A    between atoms: _216  and  _217
REMARK   93  A    between atoms: _216  and  _219
REMARK   94  A    between atoms: _222  and  _224
REMARK   95  A    between atoms: _224  and  _225
REMARK   96  A    between atoms: _227  and  _229
REMARK   97  A    between atoms: _229  and  _230
REMARK   98  A    between atoms: _229  and  _232
REMARK   99  A    between atoms: _232  and  _233
REMARK  100  A    between atoms: _233  and  _234
REMARK  101  A    between atoms: _239  and  _241
REMARK  102  A    between atoms: _241  and  _242
REMARK  103  A    between atoms: _241  and  _244
REMARK  104  A    between atoms: _244  and  _245
REMARK  105  A    between atoms: _248  and  _250
REMARK  106  A    between atoms: _250  and  _251
REMARK  107  A    between atoms: _253  and  _255
REMARK  108  A    between atoms: _255  and  _256
REMARK  109  A    between atoms: _255  and  _258
REMARK  110  A    between atoms: _258  and  _259
REMARK  111  A    between atoms: _265  and  _267
REMARK  112  A    between atoms: _267  and  _268
REMARK  113  A    between atoms: _267  and  _270
REMARK  114  A    between atoms: _270  and  _271
REMARK  115  A    between atoms: _276  and  _277
REMARK  116  A    between atoms: _279  and  _281
REMARK  117  A    between atoms: _281  and  _282
REMARK  118  A    between atoms: _281  and  _284
REMARK  119  A    between atoms: _287  and  _289
REMARK  120  A    between atoms: _289  and  _290
REMARK  121  A    between atoms: _293  and  _295
REMARK  122  A    between atoms: _295  and  _296
REMARK  123  A    between atoms: _295  and  _298
REMARK  124  A    between atoms: _298  and  _299
REMARK  125  A    between atoms: _304  and  _305
REMARK  126  A    between atoms: _307  and  _309
REMARK  127  A    between atoms: _309  and  _310
REMARK  128  A    between atoms: _309  and  _312
REMARK  129  A    between atoms: _312  and  _313
REMARK  130  A    between atoms: ZN_323  and  _327
REMARK  131  A    between atoms: MG_324  and  _327
REMARK                            x       y       z     vdW  Elec       q    Type
REMARK                         _______ _______ _______ _____ _____    ______ ____
ROOT
ATOM      1  CA  VAL A   1       2.870  22.615  37.807  0.00  0.00    +0.133 C 
ENDROOT
BRANCH   1   2
ATOM      2  CB  VAL A   1       3.971  23.089  38.808  0.00  0.00    +0.023 C 
ATOM      3  CG2 VAL A   1       3.748  22.508  40.206  0.00  0.00    +0.002 C 
ATOM      4  CG1 VAL A   1       5.367  22.745  38.292  0.00  0.00    +0.002 C 
ENDBRANCH   1   2
BRANCH   1   5
ATOM      5  N   VAL A   1       2.871  23.378  36.524  0.00  0.00    -0.239 NA
ATOM      6  H   VAL A   1       3.522  24.184  36.433  0.00  0.00    +0.142 HD
ENDBRANCH   1   5
BRANCH   1   7
ATOM      7  C   VAL A   1       1.467  22.560  38.435  0.00  0.00    +0.224 C 
ATOM      8  O   VAL A   1       0.985  21.459  38.698  0.00  0.00    -0.287 OA
ENDBRANCH   1   7
TORSDOF 3
REMARK  Name = ../refined-set-2016/5c1w/5c1w_pocket.pdb
REMARK  131 active torsions:
REMARK  status: ('A' for Active; 'I' for Inactive)
REMARK    1  A    between atoms: _1  and  _3
REMARK    2  A    between atoms: _3  and  _4
REMARK    3  A    between atoms: _3  and  _6
REMARK    4  A    between atoms: _6  and  _7
REMARK    5  A    between atoms: _12  and  _13
REMARK    6  A    between atoms: _15  and  _17
REMARK    7  A    between atoms: _17  and  _18
REMARK    8  A    between atoms: _17  and  _20
REMARK    9  A    between atoms: _20  and  _21
REMARK   10  A    between atoms: _26  and  _28
REMARK   11  A    between atoms: _28  and  _29
REMARK   12  A    between atoms: _28  and  _31
REMARK   13  A    between atoms: _31  and  _32
REMARK   14  A    between atoms: _36  and  ZN_323
REMARK   15  A    between atoms: _37  and  _39
REMARK   16  A    between atoms: _39  and  _40
REMARK   17  A    between atoms: _39  and  _42
REMARK   18  A    between atoms: _42  and  _43
REMARK   19  A    between atoms: _46  and  _48
REMARK   20  A    between atoms: _48  and  _49
REMARK   21  A    between atoms: _48  and  _51
REMARK   22  A    between atoms: _51  and  _52
REMARK   23  A    between atoms: _55  and  _57
REMARK   24  A    between atoms: _57  and  _58
REMARK   25  A    between atoms: _57  and  _60
REMARK   26  A    between atoms: _60  and  _61
REMARK   27  A    between atoms: _64  and  _66
REMARK   28  A    between atoms: _66  and  _67
REMARK   29  A    between atoms: _66  and  _69
REMARK   30  A    between atoms: _71  and  _73
REMARK   31  A    between atoms: _73  and  _74
REMARK   32  A    between atoms: _73  and  _76
REMARK   33  A    between atoms: _76  and  _77
REMARK   34  A    between atoms: _77  and  _78
REMARK   35  A    between atoms: _78  and  ZN_323
REMARK   36  A    between atoms: _80  and  _82
REMARK   37  A    between atoms: _82  and  _83
REMARK   38  A    between atoms: _82  and  _85
REMARK   39  A    between atoms: _85  and  _86
REMARK   40  A    between atoms: _89  and  _91
REMARK   41  A    between atoms: _91  and  _92
REMARK   42  A    between atoms: _91  and  _94
REMARK   43  A    between atoms: _96  and  _98
REMARK   44  A    between atoms: _98  and  _99
REMARK   45  A    between atoms: _98  and  _101
REMARK   46  A    between atoms: _101  and  _102
REMARK   47  A    between atoms: _104  and  _106
REMARK   48  A    between atoms: _106  and  _107
REMARK   49  A    between atoms: _106  and  _109
REMARK   50  A    between atoms: _112  and  _114
REMARK   51  A    between atoms: _114  and  _115
REMARK   52  A    between atoms: _114  and  _117
REMARK   53  A    between atoms: _117  and  _118
REMARK   54  A    between atoms: _121  and  _123
REMARK   55  A    between atoms: _123  and  _124
REMARK   56  A    between atoms: _123  and  _126
REMARK   57  A    between atoms: _126  and  _127
REMARK   58  A    between atoms: _130  and  _132
REMARK   59  A    between atoms: _132  and  _133
REMARK   60  A    between atoms: _132  and  _135
REMARK   61  A    between atoms: _135  and  _136
REMARK   62  A    between atoms: _139  and  _141
REMARK   63  A    between atoms: _141  and  _142
REMARK   64  A    between atoms: _145  and  _147
REMARK   65  A    between atoms: _147  and  _148
REMARK   66  A    between atoms: _147  and  _150
REMARK   67  A    between atoms: _150  and  _151
REMARK   68  A    between atoms: _154  and  _156
REMARK   69  A    between atoms: _156  and  _157
REMARK   70  A    between atoms: _156  and  _159
REMARK   71  A    between atoms: _159  and  _160
REMARK   72  A    between atoms: _165  and  _166
REMARK   73  A    between atoms: _168  and  _170
REMARK   74  A    between atoms: _170  and  _171
REMARK   75  A    between atoms: _170  and  _173
REMARK   76  A    between atoms: _173  and  _174
REMARK   77  A    between atoms: _180  and  _182
REMARK   78  A    between atoms: _182  and  _183
REMARK   79  A    between atoms: _182  and  _185
REMARK   80  A    between atoms: _185  and  _186
REMARK   81  A    between atoms: _196  and  _198
REMARK   82  A    between atoms: _198  and  _199
REMARK   83  A    between atoms: _198  and  _201
REMARK   84  A    between atoms: _201  and  _202
REMARK   85  A    between atoms: _202  and  _203
REMARK   86  A    between atoms: _205  and  _207
REMARK   87  A    between atoms: _207  and  _208
REMARK   88  A    between atoms: _207  and  _210
REMARK   89  A    between atoms: _210  and  _211
REMARK   90  A    between atoms: _211  and  _212
REMARK   91  A    between atoms: _214  and  _216
REMARK   92  A    between atoms: _216  and  _217
REMARK   93  A    between atoms: _216  and  _219
REMARK   94  A    between atoms: _222  and  _224
REMARK   95  A    between atoms: _224  and  _225
REMARK   96  A    between atoms: _227  and  _229
REMARK   97  A    between atoms: _229  and  _230
REMARK   98  A    between atoms: _229  and  _232
REMARK   99  A    between atoms: _232  and  _233
REMARK  100  A    between atoms: _233  and  _234
REMARK  101  A    between atoms: _239  and  _241
REMARK  102  A    between atoms: _241  and  _242
REMARK  103  A    between atoms: _241  and  _244
REMARK  104  A    between atoms: _244  and  _245
REMARK  105  A    between atoms: _248  and  _250
REMARK  106  A    between atoms: _250  and  _251
REMARK  107  A    between atoms: _253  and  _255
REMARK  108  A    between atoms: _255  and  _256
REMARK  109  A    between atoms: _255  and  _258
REMARK  110  A    between atoms: _258  and  _259
REMARK  111  A    between atoms: _265  and  _267
REMARK  112  A    between atoms: _267  and  _268
REMARK  113  A    between atoms: _267  and  _270
REMARK  114  A    between atoms: _270  and  _271
REMARK  115  A    between atoms: _276  and  _277
REMARK  116  A    between atoms: _279  and  _281
REMARK  117  A    between atoms: _281  and  _282
REMARK  118  A    between atoms: _281  and  _284
REMARK  119  A    between atoms: _287  and  _289
REMARK  120  A    between atoms: _289  and  _290
REMARK  121  A    between atoms: _293  and  _295
REMARK  122  A    between atoms: _295  and  _296
REMARK  123  A    between atoms: _295  and  _298
REMARK  124  A    between atoms: _298  and  _299
REMARK  125  A    between atoms: _304  and  _305
REMARK  126  A    between atoms: _307  and  _309
REMARK  127  A    between atoms: _309  and  _310
REMARK  128  A    between atoms: _309  and  _312
REMARK  129  A    between atoms: _312  and  _313
REMARK  130  A    between atoms: ZN_323  and  _327
REMARK  131  A    between atoms: MG_324  and  _327
REMARK                            x       y       z     vdW  Elec       q    Type
REMARK                         _______ _______ _______ _____ _____    ______ ____
ROOT
ATOM      1  CA  GLY A   4      -4.129  15.873  37.312  0.00  0.00    +0.176 C 
ENDROOT
BRANCH   1   2
ATOM      2  C   GLY A   4      -3.706  14.718  38.195  0.00  0.00    +0.243 C 
ATOM      3  N   PHE A   5      -2.584  14.901  38.921  0.00  0.00    -0.297 N 
ATOM      4  H   PHE A   5      -2.079  15.805  38.820  0.00  0.00    +0.150 HD
ATOM      5  O   GLY A   4      -4.395  13.702  38.252  0.00  0.00    -0.273 OA
BRANCH   3   6
ATOM      6  CA  PHE A   5      -2.033  13.905  39.843  0.00  0.00    +0.153 C 
BRANCH   6   7
ATOM      7  C   PHE A   5      -3.020  13.588  40.958  0.00  0.00    +0.241 C 
ATOM      8  N   TYR A   6      -3.647  14.624  41.560  0.00  0.00    -0.298 N 
ATOM      9  H   TYR A   6      -3.446  15.601  41.265  0.00  0.00    +0.150 HD
ATOM     10  O   PHE A   5      -3.233  12.407  41.272  0.00  0.00    -0.273 OA
BRANCH   8  11
ATOM     11  CA  TYR A   6      -4.608  14.360  42.627  0.00  0.00    +0.141 C 
BRANCH  11  12
ATOM     12  C   TYR A   6      -5.837  13.641  42.100  0.00  0.00    +0.227 C 
ATOM     13  O   TYR A   6      -6.294  12.679  42.719  0.00  0.00    -0.286 OA
ENDBRANCH  11  12
BRANCH  11  14
ATOM     14  CB  TYR A   6      -5.017  15.649  43.344  0.00  0.00    +0.054 C 
BRANCH  14  15
ATOM     15  CG  TYR A   6      -4.052  16.133  44.416  0.00  0.00    -0.020 A 
ATOM     16  CD2 TYR A   6      -4.451  16.238  45.766  0.00  0.00    -0.001 A 
ATOM     17  CE2 TYR A   6      -3.590  16.756  46.740  0.00  0.00    +0.036 A 
ATOM     18  CZ  TYR A   6      -2.295  17.110  46.389  0.00  0.00    +0.134 A 
ATOM     19  CE1 TYR A   6      -1.862  16.945  45.077  0.00  0.00    +0.036 A 
ATOM     20  CD1 TYR A   6      -2.756  16.516  44.091  0.00  0.00    -0.001 A 
BRANCH  18  21
ATOM     21  OH  TYR A   6      -1.426  17.651  47.307  0.00  0.00    -0.506 OA
ATOM     22  HH  TYR A   6      -0.558  17.835  46.869  0.00  0.00    +0.292 HD
ENDBRANCH  18  21
ENDBRANCH  14  15
ENDBRANCH  11  14
ENDBRANCH   8  11
ENDBRANCH   6   7
BRANCH   6  23
ATOM     23  CB  PHE A   5      -0.681  14.378  40.409  0.00  0.00    +0.055 C 
BRANCH  23  24
ATOM     24  CG  PHE A   5      -0.045  13.287  41.251  0.00  0.00    -0.020 A 
ATOM     25  CD2 PHE A   5      -0.243  13.238  42.636  0.00  0.00    -0.004 A 
ATOM     26  CE2 PHE A   5       0.306  12.198  43.409  0.00  0.00    -0.000 A 
ATOM     27  CZ  PHE A   5       1.059  11.216  42.796  0.00  0.00    -0.000 A 
ATOM     28  CE1 PHE A   5       1.296  11.272  41.438  0.00  0.00    -0.000 A 
ATOM     29  CD1 PHE A   5       0.730  12.292  40.660  0.00  0.00    -0.004 A 
ENDBRANCH  23  24
ENDBRANCH   6  23
ENDBRANCH   3   6
ENDBRANCH   1   2
BRANCH   1  32
ATOM     30  C   LEU A   3      -4.807  17.403  39.145  0.00  0.00    +0.241 C 
ATOM     31  O   LEU A   3      -5.579  16.593  39.656  0.00  0.00    -0.273 OA
ATOM     32  N   GLY A   4      -4.079  17.144  38.041  0.00  0.00    -0.295 N 
ATOM     33  H   GLY A   4      -3.445  17.888  37.686  0.00  0.00    +0.150 HD
BRANCH  30  34
ATOM     34  CA  LEU A   3      -4.639  18.785  39.805  0.00  0.00    +0.149 C 
BRANCH  34  37
ATOM     35  C   GLN A   2      -2.352  18.276  40.464  0.00  0.00    +0.241 C 
ATOM     36  O   GLN A   2      -2.704  17.215  40.945  0.00  0.00    -0.273 OA
ATOM     37  N   LEU A   3      -3.218  19.118  39.878  0.00  0.00    -0.297 N 
ATOM     38  H   LEU A   3      -2.875  20.013  39.473  0.00  0.00    +0.150 HD
BRANCH  35  39
ATOM     39  CA  GLN A   2      -0.864  18.637  40.444  0.00  0.00    +0.149 C 
BRANCH  39  41
ATOM     40  C   GLY A   1      -0.468  18.270  38.043  0.00  0.00    +0.240 C 
ATOM     41  N   GLN A   2      -0.467  19.072  39.110  0.00  0.00    -0.297 N 
ATOM     42  H   GLN A   2      -0.167  20.060  38.983  0.00  0.00    +0.150 HD
ATOM     43  O   GLY A   1      -0.799  17.082  38.097  0.00  0.00    -0.274 OA
BRANCH  40  44
ATOM     44  CA  GLY A   1      -0.099  18.896  36.709  0.00  0.00    +0.169 C 
BRANCH  44  45
ATOM     45  N   GLY A   1      -0.698  20.222  36.547  0.00  0.00    -0.236 NA
ATOM     46  H   GLY A   1      -0.072  21.050  36.477  0.00  0.00    +0.142 HD
ENDBRANCH  44  45
ENDBRANCH  40  44
ENDBRANCH  39  41
BRANCH  39  47
ATOM     47  CB  GLN A   2      -0.473  19.675  41.488  0.00  0.00    +0.039 C 
BRANCH  47  48
ATOM     48  CG  GLN A   2       1.030  19.714  41.729  0.00  0.00    +0.087 C 
BRANCH  48  49
ATOM     49  CD  GLN A   2       1.461  18.442  42.435  0.00  0.00    +0.219 C 
ATOM     50  OE1 GLN A   2       1.036  18.149  43.561  0.00  0.00    -0.275 OA
ATOM     51  NE2 GLN A   2       2.283  17.640  41.773  0.00  0.00    -0.329 N 
ATOM     52 HE21 GLN A   2       2.586  16.740  42.198  0.00  0.00    +0.145 HD
ATOM     53 HE22 GLN A   2       2.625  17.910  40.829  0.00  0.00    +0.145 HD
ENDBRANCH  48  49
ENDBRANCH  47  48
ENDBRANCH  39  47
ENDBRANCH  35  39
ENDBRANCH  34  37
BRANCH  34  54
ATOM     54  CB  LEU A   3      -5.395  19.868  38.989  0.00  0.00    +0.029 C 
BRANCH  54  55
ATOM     55  CG  LEU A   3      -6.916  19.721  38.904  0.00  0.00    +0.002 C 
ATOM     56  CD2 LEU A   3      -7.544  19.925  40.222  0.00  0.00    +0.000 C 
ATOM     57  CD1 LEU A   3      -7.500  20.723  37.939  0.00  0.00    +0.000 C 
ENDBRANCH  54  55
ENDBRANCH  34  54
ENDBRANCH  30  34
ENDBRANCH   1  32
TORSDOF 22
REMARK  Name = ../refined-set-2016/5c1w/5c1w_pocket.pdb
REMARK  131 active torsions:
REMARK  status: ('A' for Active; 'I' for Inactive)
REMARK    1  A    between atoms: _1  and  _3
REMARK    2  A    between atoms: _3  and  _4
REMARK    3  A    between atoms: _3  and  _6
REMARK    4  A    between atoms: _6  and  _7
REMARK    5  A    between atoms: _12  and  _13
REMARK    6  A    between atoms: _15  and  _17
REMARK    7  A    between atoms: _17  and  _18
REMARK    8  A    between atoms: _17  and  _20
REMARK    9  A    between atoms: _20  and  _21
REMARK   10  A    between atoms: _26  and  _28
REMARK   11  A    between atoms: _28  and  _29
REMARK   12  A    between atoms: _28  and  _31
REMARK   13  A    between atoms: _31  and  _32
REMARK   14  A    between atoms: _36  and  ZN_323
REMARK   15  A    between atoms: _37  and  _39
REMARK   16  A    between atoms: _39  and  _40
REMARK   17  A    between atoms: _39  and  _42
REMARK   18  A    between atoms: _42  and  _43
REMARK   19  A    between atoms: _46  and  _48
REMARK   20  A    between atoms: _48  and  _49
REMARK   21  A    between atoms: _48  and  _51
REMARK   22  A    between atoms: _51  and  _52
REMARK   23  A    between atoms: _55  and  _57
REMARK   24  A    between atoms: _57  and  _58
REMARK   25  A    between atoms: _57  and  _60
REMARK   26  A    between atoms: _60  and  _61
REMARK   27  A    between atoms: _64  and  _66
REMARK   28  A    between atoms: _66  and  _67
REMARK   29  A    between atoms: _66  and  _69
REMARK   30  A    between atoms: _71  and  _73
REMARK   31  A    between atoms: _73  and  _74
REMARK   32  A    between atoms: _73  and  _76
REMARK   33  A    between atoms: _76  and  _77
REMARK   34  A    between atoms: _77  and  _78
REMARK   35  A    between atoms: _78  and  ZN_323
REMARK   36  A    between atoms: _80  and  _82
REMARK   37  A    between atoms: _82  and  _83
REMARK   38  A    between atoms: _82  and  _85
REMARK   39  A    between atoms: _85  and  _86
REMARK   40  A    between atoms: _89  and  _91
REMARK   41  A    between atoms: _91  and  _92
REMARK   42  A    between atoms: _91  and  _94
REMARK   43  A    between atoms: _96  and  _98
REMARK   44  A    between atoms: _98  and  _99
REMARK   45  A    between atoms: _98  and  _101
REMARK   46  A    between atoms: _101  and  _102
REMARK   47  A    between atoms: _104  and  _106
REMARK   48  A    between atoms: _106  and  _107
REMARK   49  A    between atoms: _106  and  _109
REMARK   50  A    between atoms: _112  and  _114
REMARK   51  A    between atoms: _114  and  _115
REMARK   52  A    between atoms: _114  and  _117
REMARK   53  A    between atoms: _117  and  _118
REMARK   54  A    between atoms: _121  and  _123
REMARK   55  A    between atoms: _123  and  _124
REMARK   56  A    between atoms: _123  and  _126
REMARK   57  A    between atoms: _126  and  _127
REMARK   58  A    between atoms: _130  and  _132
REMARK   59  A    between atoms: _132  and  _133
REMARK   60  A    between atoms: _132  and  _135
REMARK   61  A    between atoms: _135  and  _136
REMARK   62  A    between atoms: _139  and  _141
REMARK   63  A    between atoms: _141  and  _142
REMARK   64  A    between atoms: _145  and  _147
REMARK   65  A    between atoms: _147  and  _148
REMARK   66  A    between atoms: _147  and  _150
REMARK   67  A    between atoms: _150  and  _151
REMARK   68  A    between atoms: _154  and  _156
REMARK   69  A    between atoms: _156  and  _157
REMARK   70  A    between atoms: _156  and  _159
REMARK   71  A    between atoms: _159  and  _160
REMARK   72  A    between atoms: _165  and  _166
REMARK   73  A    between atoms: _168  and  _170
REMARK   74  A    between atoms: _170  and  _171
REMARK   75  A    between atoms: _170  and  _173
REMARK   76  A    between atoms: _173  and  _174
REMARK   77  A    between atoms: _180  and  _182
REMARK   78  A    between atoms: _182  and  _183
REMARK   79  A    between atoms: _182  and  _185
REMARK   80  A    between atoms: _185  and  _186
REMARK   81  A    between atoms: _196  and  _198
REMARK   82  A    between atoms: _198  and  _199
REMARK   83  A    between atoms: _198  and  _201
REMARK   84  A    between atoms: _201  and  _202
REMARK   85  A    between atoms: _202  and  _203
REMARK   86  A    between atoms: _205  and  _207
REMARK   87  A    between atoms: _207  and  _208
REMARK   88  A    between atoms: _207  and  _210
REMARK   89  A    between atoms: _210  and  _211
REMARK   90  A    between atoms: _211  and  _212
REMARK   91  A    between atoms: _214  and  _216
REMARK   92  A    between atoms: _216  and  _217
REMARK   93  A    between atoms: _216  and  _219
REMARK   94  A    between atoms: _222  and  _224
REMARK   95  A    between atoms: _224  and  _225
REMARK   96  A    between atoms: _227  and  _229
REMARK   97  A    between atoms: _229  and  _230
REMARK   98  A    between atoms: _229  and  _232
REMARK   99  A    between atoms: _232  and  _233
REMARK  100  A    between atoms: _233  and  _234
REMARK  101  A    between atoms: _239  and  _241
REMARK  102  A    between atoms: _241  and  _242
REMARK  103  A    between atoms: _241  and  _244
REMARK  104  A    between atoms: _244  and  _245
REMARK  105  A    between atoms: _248  and  _250
REMARK  106  A    between atoms: _250  and  _251
REMARK  107  A    between atoms: _253  and  _255
REMARK  108  A    between atoms: _255  and  _256
REMARK  109  A    between atoms: _255  and  _258
REMARK  110  A    between atoms: _258  and  _259
REMARK  111  A    between atoms: _265  and  _267
REMARK  112  A    between atoms: _267  and  _268
REMARK  113  A    between atoms: _267  and  _270
REMARK  114  A    between atoms: _270  and  _271
REMARK  115  A    between atoms: _276  and  _277
REMARK  116  A    between atoms: _279  and  _281
REMARK  117  A    between atoms: _281  and  _282
REMARK  118  A    between atoms: _281  and  _284
REMARK  119  A    between atoms: _287  and  _289
REMARK  120  A    between atoms: _289  and  _290
REMARK  121  A    between atoms: _293  and  _295
REMARK  122  A    between atoms: _295  and  _296
REMARK  123  A    between atoms: _295  and  _298
REMARK  124  A    between atoms: _298  and  _299
REMARK  125  A    between atoms: _304  and  _305
REMARK  126  A    between atoms: _307  and  _309
REMARK  127  A    between atoms: _309  and  _310
REMARK  128  A    between atoms: _309  and  _312
REMARK  129  A    between atoms: _312  and  _313
REMARK  130  A    between atoms: ZN_323  and  _327
REMARK  131  A    between atoms: MG_324  and  _327
REMARK                            x       y       z     vdW  Elec       q    Type
REMARK                         _______ _______ _______ _____ _____    ______ ____
ROOT
ATOM      1  C   VAL A   1      -4.119   9.158  43.086  0.00  0.00    +0.238 C 
ATOM      2  O   VAL A   1      -4.595   8.211  43.690  0.00  0.00    -0.274 OA
ATOM      3  N   ALA A   2      -3.881  10.322  43.657  0.00  0.00    -0.298 N 
ATOM      4  H   ALA A   2      -3.555  11.127  43.084  0.00  0.00    +0.150 HD
ENDROOT
BRANCH   3   5
ATOM      5  CA  ALA A   2      -4.077  10.480  45.105  0.00  0.00    +0.137 C 
ATOM      6  CB  ALA A   2      -3.474  11.788  45.562  0.00  0.00    +0.030 C 
BRANCH   5   7
ATOM      7  C   ALA A   2      -5.523  10.327  45.622  0.00  0.00    +0.227 C 
ATOM      8  O   ALA A   2      -5.744   9.561  46.577  0.00  0.00    -0.286 OA
ENDBRANCH   5   7
ENDBRANCH   3   5
BRANCH   1   9
ATOM      9  CA  VAL A   1      -3.731   9.002  41.611  0.00  0.00    +0.145 C 
BRANCH   9  10
ATOM     10  CB  VAL A   1      -2.185   9.211  41.403  0.00  0.00    +0.025 C 
ATOM     11  CG2 VAL A   1      -1.363   8.258  42.261  0.00  0.00    +0.002 C 
ATOM     12  CG1 VAL A   1      -1.779   9.080  39.931  0.00  0.00    +0.002 C 
ENDBRANCH   9  10
BRANCH   9  13
ATOM     13  N   VAL A   1      -4.455   9.886  40.710  0.00  0.00    -0.238 NA
ATOM     14  H   VAL A   1      -4.375  10.915  40.837  0.00  0.00    +0.142 HD
ENDBRANCH   9  13
ENDBRANCH   1   9
TORSDOF 5
REMARK  Name = ../refined-set-2016/5c1w/5c1w_pocket.pdb
REMARK  131 active torsions:
REMARK  status: ('A' for Active; 'I' for Inactive)
REMARK    1  A    between atoms: _1  and  _3
REMARK    2  A    between atoms: _3  and  _4
REMARK    3  A    between atoms: _3  and  _6
REMARK    4  A    between atoms: _6  and  _7
REMARK    5  A    between atoms: _12  and  _13
REMARK    6  A    between atoms: _15  and  _17
REMARK    7  A    between atoms: _17  and  _18
REMARK    8  A    between atoms: _17  and  _20
REMARK    9  A    between atoms: _20  and  _21
REMARK   10  A    between atoms: _26  and  _28
REMARK   11  A    between atoms: _28  and  _29
REMARK   12  A    between atoms: _28  and  _31
REMARK   13  A    between atoms: _31  and  _32
REMARK   14  A    between atoms: _36  and  ZN_323
REMARK   15  A    between atoms: _37  and  _39
REMARK   16  A    between atoms: _39  and  _40
REMARK   17  A    between atoms: _39  and  _42
REMARK   18  A    between atoms: _42  and  _43
REMARK   19  A    between atoms: _46  and  _48
REMARK   20  A    between atoms: _48  and  _49
REMARK   21  A    between atoms: _48  and  _51
REMARK   22  A    between atoms: _51  and  _52
REMARK   23  A    between atoms: _55  and  _57
REMARK   24  A    between atoms: _57  and  _58
REMARK   25  A    between atoms: _57  and  _60
REMARK   26  A    between atoms: _60  and  _61
REMARK   27  A    between atoms: _64  and  _66
REMARK   28  A    between atoms: _66  and  _67
REMARK   29  A    between atoms: _66  and  _69
REMARK   30  A    between atoms: _71  and  _73
REMARK   31  A    between atoms: _73  and  _74
REMARK   32  A    between atoms: _73  and  _76
REMARK   33  A    between atoms: _76  and  _77
REMARK   34  A    between atoms: _77  and  _78
REMARK   35  A    between atoms: _78  and  ZN_323
REMARK   36  A    between atoms: _80  and  _82
REMARK   37  A    between atoms: _82  and  _83
REMARK   38  A    between atoms: _82  and  _85
REMARK   39  A    between atoms: _85  and  _86
REMARK   40  A    between atoms: _89  and  _91
REMARK   41  A    between atoms: _91  and  _92
REMARK   42  A    between atoms: _91  and  _94
REMARK   43  A    between atoms: _96  and  _98
REMARK   44  A    between atoms: _98  and  _99
REMARK   45  A    between atoms: _98  and  _101
REMARK   46  A    between atoms: _101  and  _102
REMARK   47  A    between atoms: _104  and  _106
REMARK   48  A    between atoms: _106  and  _107
REMARK   49  A    between atoms: _106  and  _109
REMARK   50  A    between atoms: _112  and  _114
REMARK   51  A    between atoms: _114  and  _115
REMARK   52  A    between atoms: _114  and  _117
REMARK   53  A    between atoms: _117  and  _118
REMARK   54  A    between atoms: _121  and  _123
REMARK   55  A    between atoms: _123  and  _124
REMARK   56  A    between atoms: _123  and  _126
REMARK   57  A    between atoms: _126  and  _127
REMARK   58  A    between atoms: _130  and  _132
REMARK   59  A    between atoms: _132  and  _133
REMARK   60  A    between atoms: _132  and  _135
REMARK   61  A    between atoms: _135  and  _136
REMARK   62  A    between atoms: _139  and  _141
REMARK   63  A    between atoms: _141  and  _142
REMARK   64  A    between atoms: _145  and  _147
REMARK   65  A    between atoms: _147  and  _148
REMARK   66  A    between atoms: _147  and  _150
REMARK   67  A    between atoms: _150  and  _151
REMARK   68  A    between atoms: _154  and  _156
REMARK   69  A    between atoms: _156  and  _157
REMARK   70  A    between atoms: _156  and  _159
REMARK   71  A    between atoms: _159  and  _160
REMARK   72  A    between atoms: _165  and  _166
REMARK   73  A    between atoms: _168  and  _170
REMARK   74  A    between atoms: _170  and  _171
REMARK   75  A    between atoms: _170  and  _173
REMARK   76  A    between atoms: _173  and  _174
REMARK   77  A    between atoms: _180  and  _182
REMARK   78  A    between atoms: _182  and  _183
REMARK   79  A    between atoms: _182  and  _185
REMARK   80  A    between atoms: _185  and  _186
REMARK   81  A    between atoms: _196  and  _198
REMARK   82  A    between atoms: _198  and  _199
REMARK   83  A    between atoms: _198  and  _201
REMARK   84  A    between atoms: _201  and  _202
REMARK   85  A    between atoms: _202  and  _203
REMARK   86  A    between atoms: _205  and  _207
REMARK   87  A    between atoms: _207  and  _208
REMARK   88  A    between atoms: _207  and  _210
REMARK   89  A    between atoms: _210  and  _211
REMARK   90  A    between atoms: _211  and  _212
REMARK   91  A    between atoms: _214  and  _216
REMARK   92  A    between atoms: _216  and  _217
REMARK   93  A    between atoms: _216  and  _219
REMARK   94  A    between atoms: _222  and  _224
REMARK   95  A    between atoms: _224  and  _225
REMARK   96  A    between atoms: _227  and  _229
REMARK   97  A    between atoms: _229  and  _230
REMARK   98  A    between atoms: _229  and  _232
REMARK   99  A    between atoms: _232  and  _233
REMARK  100  A    between atoms: _233  and  _234
REMARK  101  A    between atoms: _239  and  _241
REMARK  102  A    between atoms: _241  and  _242
REMARK  103  A    between atoms: _241  and  _244
REMARK  104  A    between atoms: _244  and  _245
REMARK  105  A    between atoms: _248  and  _250
REMARK  106  A    between atoms: _250  and  _251
REMARK  107  A    between atoms: _253  and  _255
REMARK  108  A    between atoms: _255  and  _256
REMARK  109  A    between atoms: _255  and  _258
REMARK  110  A    between atoms: _258  and  _259
REMARK  111  A    between atoms: _265  and  _267
REMARK  112  A    between atoms: _267  and  _268
REMARK  113  A    between atoms: _267  and  _270
REMARK  114  A    between atoms: _270  and  _271
REMARK  115  A    between atoms: _276  and  _277
REMARK  116  A    between atoms: _279  and  _281
REMARK  117  A    between atoms: _281  and  _282
REMARK  118  A    between atoms: _281  and  _284
REMARK  119  A    between atoms: _287  and  _289
REMARK  120  A    between atoms: _289  and  _290
REMARK  121  A    between atoms: _293  and  _295
REMARK  122  A    between atoms: _295  and  _296
REMARK  123  A    between atoms: _295  and  _298
REMARK  124  A    between atoms: _298  and  _299
REMARK  125  A    between atoms: _304  and  _305
REMARK  126  A    between atoms: _307  and  _309
REMARK  127  A    between atoms: _309  and  _310
REMARK  128  A    between atoms: _309  and  _312
REMARK  129  A    between atoms: _312  and  _313
REMARK  130  A    between atoms: ZN_323  and  _327
REMARK  131  A    between atoms: MG_324  and  _327
REMARK                            x       y       z     vdW  Elec       q    Type
REMARK                         _______ _______ _______ _____ _____    ______ ____
ROOT
ATOM      1  CG  TYR A   1      -5.403   9.169  50.345  0.00  0.00    -0.020 A 
ATOM      2  CD2 TYR A   1      -4.660   8.434  51.265  0.00  0.00    -0.001 A 
ATOM      3  CE2 TYR A   1      -3.281   8.586  51.367  0.00  0.00    +0.036 A 
ATOM      4  CZ  TYR A   1      -2.628   9.472  50.527  0.00  0.00    +0.134 A 
ATOM      5  CE1 TYR A   1      -3.343  10.202  49.594  0.00  0.00    +0.036 A 
ATOM      6  CD1 TYR A   1      -4.728  10.055  49.517  0.00  0.00    -0.001 A 
ENDROOT
BRANCH   4   7
ATOM      7  OH  TYR A   1      -1.270   9.625  50.623  0.00  0.00    -0.506 OA
ATOM      8  HH  TYR A   1      -0.828   8.756  50.449  0.00  0.00    +0.292 HD
ENDBRANCH   4   7
BRANCH   1   9
ATOM      9  CB  TYR A   1      -6.902   8.975  50.218  0.00  0.00    +0.051 C 
BRANCH   9  10
ATOM     10  CA  TYR A   1      -7.225   7.564  49.713  0.00  0.00    +0.137 C 
BRANCH  10  11
ATOM     11  N   TYR A   1      -6.690   7.351  48.360  0.00  0.00    -0.239 NA
ATOM     12  H   TYR A   1      -6.412   8.177  47.792  0.00  0.00    +0.142 HD
ENDBRANCH  10  11
BRANCH  10  13
ATOM     13  C   TYR A   1      -8.711   7.221  49.808  0.00  0.00    +0.224 C 
ATOM     14  O   TYR A   1      -9.170   6.783  50.873  0.00  0.00    -0.287 OA
ENDBRANCH  10  13
ENDBRANCH   9  10
ENDBRANCH   1   9
TORSDOF 5
REMARK  Name = ../refined-set-2016/5c1w/5c1w_pocket.pdb
REMARK  131 active torsions:
REMARK  status: ('A' for Active; 'I' for Inactive)
REMARK    1  A    between atoms: _1  and  _3
REMARK    2  A    between atoms: _3  and  _4
REMARK    3  A    between atoms: _3  and  _6
REMARK    4  A    between atoms: _6  and  _7
REMARK    5  A    between atoms: _12  and  _13
REMARK    6  A    between atoms: _15  and  _17
REMARK    7  A    between atoms: _17  and  _18
REMARK    8  A    between atoms: _17  and  _20
REMARK    9  A    between atoms: _20  and  _21
REMARK   10  A    between atoms: _26  and  _28
REMARK   11  A    between atoms: _28  and  _29
REMARK   12  A    between atoms: _28  and  _31
REMARK   13  A    between atoms: _31  and  _32
REMARK   14  A    between atoms: _36  and  ZN_323
REMARK   15  A    between atoms: _37  and  _39
REMARK   16  A    between atoms: _39  and  _40
REMARK   17  A    between atoms: _39  and  _42
REMARK   18  A    between atoms: _42  and  _43
REMARK   19  A    between atoms: _46  and  _48
REMARK   20  A    between atoms: _48  and  _49
REMARK   21  A    between atoms: _48  and  _51
REMARK   22  A    between atoms: _51  and  _52
REMARK   23  A    between atoms: _55  and  _57
REMARK   24  A    between atoms: _57  and  _58
REMARK   25  A    between atoms: _57  and  _60
REMARK   26  A    between atoms: _60  and  _61
REMARK   27  A    between atoms: _64  and  _66
REMARK   28  A    between atoms: _66  and  _67
REMARK   29  A    between atoms: _66  and  _69
REMARK   30  A    between atoms: _71  and  _73
REMARK   31  A    between atoms: _73  and  _74
REMARK   32  A    between atoms: _73  and  _76
REMARK   33  A    between atoms: _76  and  _77
REMARK   34  A    between atoms: _77  and  _78
REMARK   35  A    between atoms: _78  and  ZN_323
REMARK   36  A    between atoms: _80  and  _82
REMARK   37  A    between atoms: _82  and  _83
REMARK   38  A    between atoms: _82  and  _85
REMARK   39  A    between atoms: _85  and  _86
REMARK   40  A    between atoms: _89  and  _91
REMARK   41  A    between atoms: _91  and  _92
REMARK   42  A    between atoms: _91  and  _94
REMARK   43  A    between atoms: _96  and  _98
REMARK   44  A    between atoms: _98  and  _99
REMARK   45  A    between atoms: _98  and  _101
REMARK   46  A    between atoms: _101  and  _102
REMARK   47  A    between atoms: _104  and  _106
REMARK   48  A    between atoms: _106  and  _107
REMARK   49  A    between atoms: _106  and  _109
REMARK   50  A    between atoms: _112  and  _114
REMARK   51  A    between atoms: _114  and  _115
REMARK   52  A    between atoms: _114  and  _117
REMARK   53  A    between atoms: _117  and  _118
REMARK   54  A    between atoms: _121  and  _123
REMARK   55  A    between atoms: _123  and  _124
REMARK   56  A    between atoms: _123  and  _126
REMARK   57  A    between atoms: _126  and  _127
REMARK   58  A    between atoms: _130  and  _132
REMARK   59  A    between atoms: _132  and  _133
REMARK   60  A    between atoms: _132  and  _135
REMARK   61  A    between atoms: _135  and  _136
REMARK   62  A    between atoms: _139  and  _141
REMARK   63  A    between atoms: _141  and  _142
REMARK   64  A    between atoms: _145  and  _147
REMARK   65  A    between atoms: _147  and  _148
REMARK   66  A    between atoms: _147  and  _150
REMARK   67  A    between atoms: _150  and  _151
REMARK   68  A    between atoms: _154  and  _156
REMARK   69  A    between atoms: _156  and  _157
REMARK   70  A    between atoms: _156  and  _159
REMARK   71  A    between atoms: _159  and  _160
REMARK   72  A    between atoms: _165  and  _166
REMARK   73  A    between atoms: _168  and  _170
REMARK   74  A    between atoms: _170  and  _171
REMARK   75  A    between atoms: _170  and  _173
REMARK   76  A    between atoms: _173  and  _174
REMARK   77  A    between atoms: _180  and  _182
REMARK   78  A    between atoms: _182  and  _183
REMARK   79  A    between atoms: _182  and  _185
REMARK   80  A    between atoms: _185  and  _186
REMARK   81  A    between atoms: _196  and  _198
REMARK   82  A    between atoms: _198  and  _199
REMARK   83  A    between atoms: _198  and  _201
REMARK   84  A    between atoms: _201  and  _202
REMARK   85  A    between atoms: _202  and  _203
REMARK   86  A    between atoms: _205  and  _207
REMARK   87  A    between atoms: _207  and  _208
REMARK   88  A    between atoms: _207  and  _210
REMARK   89  A    between atoms: _210  and  _211
REMARK   90  A    between atoms: _211  and  _212
REMARK   91  A    between atoms: _214  and  _216
REMARK   92  A    between atoms: _216  and  _217
REMARK   93  A    between atoms: _216  and  _219
REMARK   94  A    between atoms: _222  and  _224
REMARK   95  A    between atoms: _224  and  _225
REMARK   96  A    between atoms: _227  and  _229
REMARK   97  A    between atoms: _229  and  _230
REMARK   98  A    between atoms: _229  and  _232
REMARK   99  A    between atoms: _232  and  _233
REMARK  100  A    between atoms: _233  and  _234
REMARK  101  A    between atoms: _239  and  _241
REMARK  102  A    between atoms: _241  and  _242
REMARK  103  A    between atoms: _241  and  _244
REMARK  104  A    between atoms: _244  and  _245
REMARK  105  A    between atoms: _248  and  _250
REMARK  106  A    between atoms: _250  and  _251
REMARK  107  A    between atoms: _253  and  _255
REMARK  108  A    between atoms: _255  and  _256
REMARK  109  A    between atoms: _255  and  _258
REMARK  110  A    between atoms: _258  and  _259
REMARK  111  A    between atoms: _265  and  _267
REMARK  112  A    between atoms: _267  and  _268
REMARK  113  A    between atoms: _267  and  _270
REMARK  114  A    between atoms: _270  and  _271
REMARK  115  A    between atoms: _276  and  _277
REMARK  116  A    between atoms: _279  and  _281
REMARK  117  A    between atoms: _281  and  _282
REMARK  118  A    between atoms: _281  and  _284
REMARK  119  A    between atoms: _287  and  _289
REMARK  120  A    between atoms: _289  and  _290
REMARK  121  A    between atoms: _293  and  _295
REMARK  122  A    between atoms: _295  and  _296
REMARK  123  A    between atoms: _295  and  _298
REMARK  124  A    between atoms: _298  and  _299
REMARK  125  A    between atoms: _304  and  _305
REMARK  126  A    between atoms: _307  and  _309
REMARK  127  A    between atoms: _309  and  _310
REMARK  128  A    between atoms: _309  and  _312
REMARK  129  A    between atoms: _312  and  _313
REMARK  130  A    between atoms: ZN_323  and  _327
REMARK  131  A    between atoms: MG_324  and  _327
REMARK                            x       y       z     vdW  Elec       q    Type
REMARK                         _______ _______ _______ _____ _____    ______ ____
ROOT
ATOM      1  CG  TRP A   1      -2.646  21.548  44.181  0.00  0.00    -0.002 A 
ATOM      2  CD1 TRP A   1      -2.481  20.497  45.044  0.00  0.00    +0.068 A 
ATOM      3  NE1 TRP A   1      -1.161  20.404  45.425  0.00  0.00    -0.352 N 
ATOM      4  HE1 TRP A   1      -0.770  19.690  46.072  0.00  0.00    +0.166 HD
ATOM      5  CE2 TRP A   1      -0.441  21.403  44.816  0.00  0.00    +0.056 A 
ATOM      6  CZ2 TRP A   1       0.925  21.690  44.859  0.00  0.00    +0.017 A 
ATOM      7  CH2 TRP A   1       1.371  22.782  44.139  0.00  0.00    +0.001 A 
ATOM      8  CZ3 TRP A   1       0.496  23.564  43.372  0.00  0.00    +0.000 A 
ATOM      9  CE3 TRP A   1      -0.850  23.246  43.286  0.00  0.00    +0.001 A 
ATOM     10  CD2 TRP A   1      -1.341  22.152  44.027  0.00  0.00    +0.013 A 
ENDROOT
BRANCH   1  11
ATOM     11  CB  TRP A   1      -3.931  22.016  43.549  0.00  0.00    +0.053 C 
BRANCH  11  12
ATOM     12  CA  TRP A   1      -4.346  23.413  44.049  0.00  0.00    +0.137 C 
BRANCH  12  13
ATOM     13  N   TRP A   1      -4.905  23.371  45.396  0.00  0.00    -0.239 NA
ATOM     14  H   TRP A   1      -5.137  22.454  45.829  0.00  0.00    +0.142 HD
ENDBRANCH  12  13
BRANCH  12  15
ATOM     15  C   TRP A   1      -5.300  24.125  43.077  0.00  0.00    +0.224 C 
ATOM     16  O   TRP A   1      -4.826  24.894  42.236  0.00  0.00    -0.287 OA
ENDBRANCH  12  15
ENDBRANCH  11  12
ENDBRANCH   1  11
TORSDOF 4
REMARK  Name = ../refined-set-2016/5c1w/5c1w_pocket.pdb
REMARK  131 active torsions:
REMARK  status: ('A' for Active; 'I' for Inactive)
REMARK    1  A    between atoms: _1  and  _3
REMARK    2  A    between atoms: _3  and  _4
REMARK    3  A    between atoms: _3  and  _6
REMARK    4  A    between atoms: _6  and  _7
REMARK    5  A    between atoms: _12  and  _13
REMARK    6  A    between atoms: _15  and  _17
REMARK    7  A    between atoms: _17  and  _18
REMARK    8  A    between atoms: _17  and  _20
REMARK    9  A    between atoms: _20  and  _21
REMARK   10  A    between atoms: _26  and  _28
REMARK   11  A    between atoms: _28  and  _29
REMARK   12  A    between atoms: _28  and  _31
REMARK   13  A    between atoms: _31  and  _32
REMARK   14  A    between atoms: _36  and  ZN_323
REMARK   15  A    between atoms: _37  and  _39
REMARK   16  A    between atoms: _39  and  _40
REMARK   17  A    between atoms: _39  and  _42
REMARK   18  A    between atoms: _42  and  _43
REMARK   19  A    between atoms: _46  and  _48
REMARK   20  A    between atoms: _48  and  _49
REMARK   21  A    between atoms: _48  and  _51
REMARK   22  A    between atoms: _51  and  _52
REMARK   23  A    between atoms: _55  and  _57
REMARK   24  A    between atoms: _57  and  _58
REMARK   25  A    between atoms: _57  and  _60
REMARK   26  A    between atoms: _60  and  _61
REMARK   27  A    between atoms: _64  and  _66
REMARK   28  A    between atoms: _66  and  _67
REMARK   29  A    between atoms: _66  and  _69
REMARK   30  A    between atoms: _71  and  _73
REMARK   31  A    between atoms: _73  and  _74
REMARK   32  A    between atoms: _73  and  _76
REMARK   33  A    between atoms: _76  and  _77
REMARK   34  A    between atoms: _77  and  _78
REMARK   35  A    between atoms: _78  and  ZN_323
REMARK   36  A    between atoms: _80  and  _82
REMARK   37  A    between atoms: _82  and  _83
REMARK   38  A    between atoms: _82  and  _85
REMARK   39  A    between atoms: _85  and  _86
REMARK   40  A    between atoms: _89  and  _91
REMARK   41  A    between atoms: _91  and  _92
REMARK   42  A    between atoms: _91  and  _94
REMARK   43  A    between atoms: _96  and  _98
REMARK   44  A    between atoms: _98  and  _99
REMARK   45  A    between atoms: _98  and  _101
REMARK   46  A    between atoms: _101  and  _102
REMARK   47  A    between atoms: _104  and  _106
REMARK   48  A    between atoms: _106  and  _107
REMARK   49  A    between atoms: _106  and  _109
REMARK   50  A    between atoms: _112  and  _114
REMARK   51  A    between atoms: _114  and  _115
REMARK   52  A    between atoms: _114  and  _117
REMARK   53  A    between atoms: _117  and  _118
REMARK   54  A    between atoms: _121  and  _123
REMARK   55  A    between atoms: _123  and  _124
REMARK   56  A    between atoms: _123  and  _126
REMARK   57  A    between atoms: _126  and  _127
REMARK   58  A    between atoms: _130  and  _132
REMARK   59  A    between atoms: _132  and  _133
REMARK   60  A    between atoms: _132  and  _135
REMARK   61  A    between atoms: _135  and  _136
REMARK   62  A    between atoms: _139  and  _141
REMARK   63  A    between atoms: _141  and  _142
REMARK   64  A    between atoms: _145  and  _147
REMARK   65  A    between atoms: _147  and  _148
REMARK   66  A    between atoms: _147  and  _150
REMARK   67  A    between atoms: _150  and  _151
REMARK   68  A    between atoms: _154  and  _156
REMARK   69  A    between atoms: _156  and  _157
REMARK   70  A    between atoms: _156  and  _159
REMARK   71  A    between atoms: _159  and  _160
REMARK   72  A    between atoms: _165  and  _166
REMARK   73  A    between atoms: _168  and  _170
REMARK   74  A    between atoms: _170  and  _171
REMARK   75  A    between atoms: _170  and  _173
REMARK   76  A    between atoms: _173  and  _174
REMARK   77  A    between atoms: _180  and  _182
REMARK   78  A    between atoms: _182  and  _183
REMARK   79  A    between atoms: _182  and  _185
REMARK   80  A    between atoms: _185  and  _186
REMARK   81  A    between atoms: _196  and  _198
REMARK   82  A    between atoms: _198  and  _199
REMARK   83  A    between atoms: _198  and  _201
REMARK   84  A    between atoms: _201  and  _202
REMARK   85  A    between atoms: _202  and  _203
REMARK   86  A    between atoms: _205  and  _207
REMARK   87  A    between atoms: _207  and  _208
REMARK   88  A    between atoms: _207  and  _210
REMARK   89  A    between atoms: _210  and  _211
REMARK   90  A    between atoms: _211  and  _212
REMARK   91  A    between atoms: _214  and  _216
REMARK   92  A    between atoms: _216  and  _217
REMARK   93  A    between atoms: _216  and  _219
REMARK   94  A    between atoms: _222  and  _224
REMARK   95  A    between atoms: _224  and  _225
REMARK   96  A    between atoms: _227  and  _229
REMARK   97  A    between atoms: _229  and  _230
REMARK   98  A    between atoms: _229  and  _232
REMARK   99  A    between atoms: _232  and  _233
REMARK  100  A    between atoms: _233  and  _234
REMARK  101  A    between atoms: _239  and  _241
REMARK  102  A    between atoms: _241  and  _242
REMARK  103  A    between atoms: _241  and  _244
REMARK  104  A    between atoms: _244  and  _245
REMARK  105  A    between atoms: _248  and  _250
REMARK  106  A    between atoms: _250  and  _251
REMARK  107  A    between atoms: _253  and  _255
REMARK  108  A    between atoms: _255  and  _256
REMARK  109  A    between atoms: _255  and  _258
REMARK  110  A    between atoms: _258  and  _259
REMARK  111  A    between atoms: _265  and  _267
REMARK  112  A    between atoms: _267  and  _268
REMARK  113  A    between atoms: _267  and  _270
REMARK  114  A    between atoms: _270  and  _271
REMARK  115  A    between atoms: _276  and  _277
REMARK  116  A    between atoms: _279  and  _281
REMARK  117  A    between atoms: _281  and  _282
REMARK  118  A    between atoms: _281  and  _284
REMARK  119  A    between atoms: _287  and  _289
REMARK  120  A    between atoms: _289  and  _290
REMARK  121  A    between atoms: _293  and  _295
REMARK  122  A    between atoms: _295  and  _296
REMARK  123  A    between atoms: _295  and  _298
REMARK  124  A    between atoms: _298  and  _299
REMARK  125  A    between atoms: _304  and  _305
REMARK  126  A    between atoms: _307  and  _309
REMARK  127  A    between atoms: _309  and  _310
REMARK  128  A    between atoms: _309  and  _312
REMARK  129  A    between atoms: _312  and  _313
REMARK  130  A    between atoms: ZN_323  and  _327
REMARK  131  A    between atoms: MG_324  and  _327
REMARK                            x       y       z     vdW  Elec       q    Type
REMARK                         _______ _______ _______ _____ _____    ______ ____
ROOT
ATOM      1  O   HOH     1       4.056   4.632  45.362  0.00  0.00    +0.000 OA
ENDROOT
TORSDOF 0
REMARK  Name = ../refined-set-2016/5c1w/5c1w_pocket.pdb
REMARK  131 active torsions:
REMARK  status: ('A' for Active; 'I' for Inactive)
REMARK    1  A    between atoms: _1  and  _3
REMARK    2  A    between atoms: _3  and  _4
REMARK    3  A    between atoms: _3  and  _6
REMARK    4  A    between atoms: _6  and  _7
REMARK    5  A    between atoms: _12  and  _13
REMARK    6  A    between atoms: _15  and  _17
REMARK    7  A    between atoms: _17  and  _18
REMARK    8  A    between atoms: _17  and  _20
REMARK    9  A    between atoms: _20  and  _21
REMARK   10  A    between atoms: _26  and  _28
REMARK   11  A    between atoms: _28  and  _29
REMARK   12  A    between atoms: _28  and  _31
REMARK   13  A    between atoms: _31  and  _32
REMARK   14  A    between atoms: _36  and  ZN_323
REMARK   15  A    between atoms: _37  and  _39
REMARK   16  A    between atoms: _39  and  _40
REMARK   17  A    between atoms: _39  and  _42
REMARK   18  A    between atoms: _42  and  _43
REMARK   19  A    between atoms: _46  and  _48
REMARK   20  A    between atoms: _48  and  _49
REMARK   21  A    between atoms: _48  and  _51
REMARK   22  A    between atoms: _51  and  _52
REMARK   23  A    between atoms: _55  and  _57
REMARK   24  A    between atoms: _57  and  _58
REMARK   25  A    between atoms: _57  and  _60
REMARK   26  A    between atoms: _60  and  _61
REMARK   27  A    between atoms: _64  and  _66
REMARK   28  A    between atoms: _66  and  _67
REMARK   29  A    between atoms: _66  and  _69
REMARK   30  A    between atoms: _71  and  _73
REMARK   31  A    between atoms: _73  and  _74
REMARK   32  A    between atoms: _73  and  _76
REMARK   33  A    between atoms: _76  and  _77
REMARK   34  A    between atoms: _77  and  _78
REMARK   35  A    between atoms: _78  and  ZN_323
REMARK   36  A    between atoms: _80  and  _82
REMARK   37  A    between atoms: _82  and  _83
REMARK   38  A    between atoms: _82  and  _85
REMARK   39  A    between atoms: _85  and  _86
REMARK   40  A    between atoms: _89  and  _91
REMARK   41  A    between atoms: _91  and  _92
REMARK   42  A    between atoms: _91  and  _94
REMARK   43  A    between atoms: _96  and  _98
REMARK   44  A    between atoms: _98  and  _99
REMARK   45  A    between atoms: _98  and  _101
REMARK   46  A    between atoms: _101  and  _102
REMARK   47  A    between atoms: _104  and  _106
REMARK   48  A    between atoms: _106  and  _107
REMARK   49  A    between atoms: _106  and  _109
REMARK   50  A    between atoms: _112  and  _114
REMARK   51  A    between atoms: _114  and  _115
REMARK   52  A    between atoms: _114  and  _117
REMARK   53  A    between atoms: _117  and  _118
REMARK   54  A    between atoms: _121  and  _123
REMARK   55  A    between atoms: _123  and  _124
REMARK   56  A    between atoms: _123  and  _126
REMARK   57  A    between atoms: _126  and  _127
REMARK   58  A    between atoms: _130  and  _132
REMARK   59  A    between atoms: _132  and  _133
REMARK   60  A    between atoms: _132  and  _135
REMARK   61  A    between atoms: _135  and  _136
REMARK   62  A    between atoms: _139  and  _141
REMARK   63  A    between atoms: _141  and  _142
REMARK   64  A    between atoms: _145  and  _147
REMARK   65  A    between atoms: _147  and  _148
REMARK   66  A    between atoms: _147  and  _150
REMARK   67  A    between atoms: _150  and  _151
REMARK   68  A    between atoms: _154  and  _156
REMARK   69  A    between atoms: _156  and  _157
REMARK   70  A    between atoms: _156  and  _159
REMARK   71  A    between atoms: _159  and  _160
REMARK   72  A    between atoms: _165  and  _166
REMARK   73  A    between atoms: _168  and  _170
REMARK   74  A    between atoms: _170  and  _171
REMARK   75  A    between atoms: _170  and  _173
REMARK   76  A    between atoms: _173  and  _174
REMARK   77  A    between atoms: _180  and  _182
REMARK   78  A    between atoms: _182  and  _183
REMARK   79  A    between atoms: _182  and  _185
REMARK   80  A    between atoms: _185  and  _186
REMARK   81  A    between atoms: _196  and  _198
REMARK   82  A    between atoms: _198  and  _199
REMARK   83  A    between atoms: _198  and  _201
REMARK   84  A    between atoms: _201  and  _202
REMARK   85  A    between atoms: _202  and  _203
REMARK   86  A    between atoms: _205  and  _207
REMARK   87  A    between atoms: _207  and  _208
REMARK   88  A    between atoms: _207  and  _210
REMARK   89  A    between atoms: _210  and  _211
REMARK   90  A    between atoms: _211  and  _212
REMARK   91  A    between atoms: _214  and  _216
REMARK   92  A    between atoms: _216  and  _217
REMARK   93  A    between atoms: _216  and  _219
REMARK   94  A    between atoms: _222  and  _224
REMARK   95  A    between atoms: _224  and  _225
REMARK   96  A    between atoms: _227  and  _229
REMARK   97  A    between atoms: _229  and  _230
REMARK   98  A    between atoms: _229  and  _232
REMARK   99  A    between atoms: _232  and  _233
REMARK  100  A    between atoms: _233  and  _234
REMARK  101  A    between atoms: _239  and  _241
REMARK  102  A    between atoms: _241  and  _242
REMARK  103  A    between atoms: _241  and  _244
REMARK  104  A    between atoms: _244  and  _245
REMARK  105  A    between atoms: _248  and  _250
REMARK  106  A    between atoms: _250  and  _251
REMARK  107  A    between atoms: _253  and  _255
REMARK  108  A    between atoms: _255  and  _256
REMARK  109  A    between atoms: _255  and  _258
REMARK  110  A    between atoms: _258  and  _259
REMARK  111  A    between atoms: _265  and  _267
REMARK  112  A    between atoms: _267  and  _268
REMARK  113  A    between atoms: _267  and  _270
REMARK  114  A    between atoms: _270  and  _271
REMARK  115  A    between atoms: _276  and  _277
REMARK  116  A    between atoms: _279  and  _281
REMARK  117  A    between atoms: _281  and  _282
REMARK  118  A    between atoms: _281  and  _284
REMARK  119  A    between atoms: _287  and  _289
REMARK  120  A    between atoms: _289  and  _290
REMARK  121  A    between atoms: _293  and  _295
REMARK  122  A    between atoms: _295  and  _296
REMARK  123  A    between atoms: _295  and  _298
REMARK  124  A    between atoms: _298  and  _299
REMARK  125  A    between atoms: _304  and  _305
REMARK  126  A    between atoms: _307  and  _309
REMARK  127  A    between atoms: _309  and  _310
REMARK  128  A    between atoms: _309  and  _312
REMARK  129  A    between atoms: _312  and  _313
REMARK  130  A    between atoms: ZN_323  and  _327
REMARK  131  A    between atoms: MG_324  and  _327
REMARK                            x       y       z     vdW  Elec       q    Type
REMARK                         _______ _______ _______ _____ _____    ______ ____
ROOT
ATOM      1  O   HOH     1       3.246  18.128  36.825  0.00  0.00    +0.000 OA
ENDROOT
TORSDOF 0
REMARK  Name = ../refined-set-2016/5c1w/5c1w_pocket.pdb
REMARK  131 active torsions:
REMARK  status: ('A' for Active; 'I' for Inactive)
REMARK    1  A    between atoms: _1  and  _3
REMARK    2  A    between atoms: _3  and  _4
REMARK    3  A    between atoms: _3  and  _6
REMARK    4  A    between atoms: _6  and  _7
REMARK    5  A    between atoms: _12  and  _13
REMARK    6  A    between atoms: _15  and  _17
REMARK    7  A    between atoms: _17  and  _18
REMARK    8  A    between atoms: _17  and  _20
REMARK    9  A    between atoms: _20  and  _21
REMARK   10  A    between atoms: _26  and  _28
REMARK   11  A    between atoms: _28  and  _29
REMARK   12  A    between atoms: _28  and  _31
REMARK   13  A    between atoms: _31  and  _32
REMARK   14  A    between atoms: _36  and  ZN_323
REMARK   15  A    between atoms: _37  and  _39
REMARK   16  A    between atoms: _39  and  _40
REMARK   17  A    between atoms: _39  and  _42
REMARK   18  A    between atoms: _42  and  _43
REMARK   19  A    between atoms: _46  and  _48
REMARK   20  A    between atoms: _48  and  _49
REMARK   21  A    between atoms: _48  and  _51
REMARK   22  A    between atoms: _51  and  _52
REMARK   23  A    between atoms: _55  and  _57
REMARK   24  A    between atoms: _57  and  _58
REMARK   25  A    between atoms: _57  and  _60
REMARK   26  A    between atoms: _60  and  _61
REMARK   27  A    between atoms: _64  and  _66
REMARK   28  A    between atoms: _66  and  _67
REMARK   29  A    between atoms: _66  and  _69
REMARK   30  A    between atoms: _71  and  _73
REMARK   31  A    between atoms: _73  and  _74
REMARK   32  A    between atoms: _73  and  _76
REMARK   33  A    between atoms: _76  and  _77
REMARK   34  A    between atoms: _77  and  _78
REMARK   35  A    between atoms: _78  and  ZN_323
REMARK   36  A    between atoms: _80  and  _82
REMARK   37  A    between atoms: _82  and  _83
REMARK   38  A    between atoms: _82  and  _85
REMARK   39  A    between atoms: _85  and  _86
REMARK   40  A    between atoms: _89  and  _91
REMARK   41  A    between atoms: _91  and  _92
REMARK   42  A    between atoms: _91  and  _94
REMARK   43  A    between atoms: _96  and  _98
REMARK   44  A    between atoms: _98  and  _99
REMARK   45  A    between atoms: _98  and  _101
REMARK   46  A    between atoms: _101  and  _102
REMARK   47  A    between atoms: _104  and  _106
REMARK   48  A    between atoms: _106  and  _107
REMARK   49  A    between atoms: _106  and  _109
REMARK   50  A    between atoms: _112  and  _114
REMARK   51  A    between atoms: _114  and  _115
REMARK   52  A    between atoms: _114  and  _117
REMARK   53  A    between atoms: _117  and  _118
REMARK   54  A    between atoms: _121  and  _123
REMARK   55  A    between atoms: _123  and  _124
REMARK   56  A    between atoms: _123  and  _126
REMARK   57  A    between atoms: _126  and  _127
REMARK   58  A    between atoms: _130  and  _132
REMARK   59  A    between atoms: _132  and  _133
REMARK   60  A    between atoms: _132  and  _135
REMARK   61  A    between atoms: _135  and  _136
REMARK   62  A    between atoms: _139  and  _141
REMARK   63  A    between atoms: _141  and  _142
REMARK   64  A    between atoms: _145  and  _147
REMARK   65  A    between atoms: _147  and  _148
REMARK   66  A    between atoms: _147  and  _150
REMARK   67  A    between atoms: _150  and  _151
REMARK   68  A    between atoms: _154  and  _156
REMARK   69  A    between atoms: _156  and  _157
REMARK   70  A    between atoms: _156  and  _159
REMARK   71  A    between atoms: _159  and  _160
REMARK   72  A    between atoms: _165  and  _166
REMARK   73  A    between atoms: _168  and  _170
REMARK   74  A    between atoms: _170  and  _171
REMARK   75  A    between atoms: _170  and  _173
REMARK   76  A    between atoms: _173  and  _174
REMARK   77  A    between atoms: _180  and  _182
REMARK   78  A    between atoms: _182  and  _183
REMARK   79  A    between atoms: _182  and  _185
REMARK   80  A    between atoms: _185  and  _186
REMARK   81  A    between atoms: _196  and  _198
REMARK   82  A    between atoms: _198  and  _199
REMARK   83  A    between atoms: _198  and  _201
REMARK   84  A    between atoms: _201  and  _202
REMARK   85  A    between atoms: _202  and  _203
REMARK   86  A    between atoms: _205  and  _207
REMARK   87  A    between atoms: _207  and  _208
REMARK   88  A    between atoms: _207  and  _210
REMARK   89  A    between atoms: _210  and  _211
REMARK   90  A    between atoms: _211  and  _212
REMARK   91  A    between atoms: _214  and  _216
REMARK   92  A    between atoms: _216  and  _217
REMARK   93  A    between atoms: _216  and  _219
REMARK   94  A    between atoms: _222  and  _224
REMARK   95  A    between atoms: _224  and  _225
REMARK   96  A    between atoms: _227  and  _229
REMARK   97  A    between atoms: _229  and  _230
REMARK   98  A    between atoms: _229  and  _232
REMARK   99  A    between atoms: _232  and  _233
REMARK  100  A    between atoms: _233  and  _234
REMARK  101  A    between atoms: _239  and  _241
REMARK  102  A    between atoms: _241  and  _242
REMARK  103  A    between atoms: _241  and  _244
REMARK  104  A    between atoms: _244  and  _245
REMARK  105  A    between atoms: _248  and  _250
REMARK  106  A    between atoms: _250  and  _251
REMARK  107  A    between atoms: _253  and  _255
REMARK  108  A    between atoms: _255  and  _256
REMARK  109  A    between atoms: _255  and  _258
REMARK  110  A    between atoms: _258  and  _259
REMARK  111  A    between atoms: _265  and  _267
REMARK  112  A    between atoms: _267  and  _268
REMARK  113  A    between atoms: _267  and  _270
REMARK  114  A    between atoms: _270  and  _271
REMARK  115  A    between atoms: _276  and  _277
REMARK  116  A    between atoms: _279  and  _281
REMARK  117  A    between atoms: _281  and  _282
REMARK  118  A    between atoms: _281  and  _284
REMARK  119  A    between atoms: _287  and  _289
REMARK  120  A    between atoms: _289  and  _290
REMARK  121  A    between atoms: _293  and  _295
REMARK  122  A    between atoms: _295  and  _296
REMARK  123  A    between atoms: _295  and  _298
REMARK  124  A    between atoms: _298  and  _299
REMARK  125  A    between atoms: _304  and  _305
REMARK  126  A    between atoms: _307  and  _309
REMARK  127  A    between atoms: _309  and  _310
REMARK  128  A    between atoms: _309  and  _312
REMARK  129  A    between atoms: _312  and  _313
REMARK  130  A    between atoms: ZN_323  and  _327
REMARK  131  A    between atoms: MG_324  and  _327
REMARK                            x       y       z     vdW  Elec       q    Type
REMARK                         _______ _______ _______ _____ _____    ______ ____
ROOT
ATOM      1  O   HOH     1       1.041  18.270  46.277  0.00  0.00    +0.000 OA
ENDROOT
TORSDOF 0
REMARK  Name = ../refined-set-2016/5c1w/5c1w_pocket.pdb
REMARK  131 active torsions:
REMARK  status: ('A' for Active; 'I' for Inactive)
REMARK    1  A    between atoms: _1  and  _3
REMARK    2  A    between atoms: _3  and  _4
REMARK    3  A    between atoms: _3  and  _6
REMARK    4  A    between atoms: _6  and  _7
REMARK    5  A    between atoms: _12  and  _13
REMARK    6  A    between atoms: _15  and  _17
REMARK    7  A    between atoms: _17  and  _18
REMARK    8  A    between atoms: _17  and  _20
REMARK    9  A    between atoms: _20  and  _21
REMARK   10  A    between atoms: _26  and  _28
REMARK   11  A    between atoms: _28  and  _29
REMARK   12  A    between atoms: _28  and  _31
REMARK   13  A    between atoms: _31  and  _32
REMARK   14  A    between atoms: _36  and  ZN_323
REMARK   15  A    between atoms: _37  and  _39
REMARK   16  A    between atoms: _39  and  _40
REMARK   17  A    between atoms: _39  and  _42
REMARK   18  A    between atoms: _42  and  _43
REMARK   19  A    between atoms: _46  and  _48
REMARK   20  A    between atoms: _48  and  _49
REMARK   21  A    between atoms: _48  and  _51
REMARK   22  A    between atoms: _51  and  _52
REMARK   23  A    between atoms: _55  and  _57
REMARK   24  A    between atoms: _57  and  _58
REMARK   25  A    between atoms: _57  and  _60
REMARK   26  A    between atoms: _60  and  _61
REMARK   27  A    between atoms: _64  and  _66
REMARK   28  A    between atoms: _66  and  _67
REMARK   29  A    between atoms: _66  and  _69
REMARK   30  A    between atoms: _71  and  _73
REMARK   31  A    between atoms: _73  and  _74
REMARK   32  A    between atoms: _73  and  _76
REMARK   33  A    between atoms: _76  and  _77
REMARK   34  A    between atoms: _77  and  _78
REMARK   35  A    between atoms: _78  and  ZN_323
REMARK   36  A    between atoms: _80  and  _82
REMARK   37  A    between atoms: _82  and  _83
REMARK   38  A    between atoms: _82  and  _85
REMARK   39  A    between atoms: _85  and  _86
REMARK   40  A    between atoms: _89  and  _91
REMARK   41  A    between atoms: _91  and  _92
REMARK   42  A    between atoms: _91  and  _94
REMARK   43  A    between atoms: _96  and  _98
REMARK   44  A    between atoms: _98  and  _99
REMARK   45  A    between atoms: _98  and  _101
REMARK   46  A    between atoms: _101  and  _102
REMARK   47  A    between atoms: _104  and  _106
REMARK   48  A    between atoms: _106  and  _107
REMARK   49  A    between atoms: _106  and  _109
REMARK   50  A    between atoms: _112  and  _114
REMARK   51  A    between atoms: _114  and  _115
REMARK   52  A    between atoms: _114  and  _117
REMARK   53  A    between atoms: _117  and  _118
REMARK   54  A    between atoms: _121  and  _123
REMARK   55  A    between atoms: _123  and  _124
REMARK   56  A    between atoms: _123  and  _126
REMARK   57  A    between atoms: _126  and  _127
REMARK   58  A    between atoms: _130  and  _132
REMARK   59  A    between atoms: _132  and  _133
REMARK   60  A    between atoms: _132  and  _135
REMARK   61  A    between atoms: _135  and  _136
REMARK   62  A    between atoms: _139  and  _141
REMARK   63  A    between atoms: _141  and  _142
REMARK   64  A    between atoms: _145  and  _147
REMARK   65  A    between atoms: _147  and  _148
REMARK   66  A    between atoms: _147  and  _150
REMARK   67  A    between atoms: _150  and  _151
REMARK   68  A    between atoms: _154  and  _156
REMARK   69  A    between atoms: _156  and  _157
REMARK   70  A    between atoms: _156  and  _159
REMARK   71  A    between atoms: _159  and  _160
REMARK   72  A    between atoms: _165  and  _166
REMARK   73  A    between atoms: _168  and  _170
REMARK   74  A    between atoms: _170  and  _171
REMARK   75  A    between atoms: _170  and  _173
REMARK   76  A    between atoms: _173  and  _174
REMARK   77  A    between atoms: _180  and  _182
REMARK   78  A    between atoms: _182  and  _183
REMARK   79  A    between atoms: _182  and  _185
REMARK   80  A    between atoms: _185  and  _186
REMARK   81  A    between atoms: _196  and  _198
REMARK   82  A    between atoms: _198  and  _199
REMARK   83  A    between atoms: _198  and  _201
REMARK   84  A    between atoms: _201  and  _202
REMARK   85  A    between atoms: _202  and  _203
REMARK   86  A    between atoms: _205  and  _207
REMARK   87  A    between atoms: _207  and  _208
REMARK   88  A    between atoms: _207  and  _210
REMARK   89  A    between atoms: _210  and  _211
REMARK   90  A    between atoms: _211  and  _212
REMARK   91  A    between atoms: _214  and  _216
REMARK   92  A    between atoms: _216  and  _217
REMARK   93  A    between atoms: _216  and  _219
REMARK   94  A    between atoms: _222  and  _224
REMARK   95  A    between atoms: _224  and  _225
REMARK   96  A    between atoms: _227  and  _229
REMARK   97  A    between atoms: _229  and  _230
REMARK   98  A    between atoms: _229  and  _232
REMARK   99  A    between atoms: _232  and  _233
REMARK  100  A    between atoms: _233  and  _234
REMARK  101  A    between atoms: _239  and  _241
REMARK  102  A    between atoms: _241  and  _242
REMARK  103  A    between atoms: _241  and  _244
REMARK  104  A    between atoms: _244  and  _245
REMARK  105  A    between atoms: _248  and  _250
REMARK  106  A    between atoms: _250  and  _251
REMARK  107  A    between atoms: _253  and  _255
REMARK  108  A    between atoms: _255  and  _256
REMARK  109  A    between atoms: _255  and  _258
REMARK  110  A    between atoms: _258  and  _259
REMARK  111  A    between atoms: _265  and  _267
REMARK  112  A    between atoms: _267  and  _268
REMARK  113  A    between atoms: _267  and  _270
REMARK  114  A    between atoms: _270  and  _271
REMARK  115  A    between atoms: _276  and  _277
REMARK  116  A    between atoms: _279  and  _281
REMARK  117  A    between atoms: _281  and  _282
REMARK  118  A    between atoms: _281  and  _284
REMARK  119  A    between atoms: _287  and  _289
REMARK  120  A    between atoms: _289  and  _290
REMARK  121  A    between atoms: _293  and  _295
REMARK  122  A    between atoms: _295  and  _296
REMARK  123  A    between atoms: _295  and  _298
REMARK  124  A    between atoms: _298  and  _299
REMARK  125  A    between atoms: _304  and  _305
REMARK  126  A    between atoms: _307  and  _309
REMARK  127  A    between atoms: _309  and  _310
REMARK  128  A    between atoms: _309  and  _312
REMARK  129  A    between atoms: _312  and  _313
REMARK  130  A    between atoms: ZN_323  and  _327
REMARK  131  A    between atoms: MG_324  and  _327
REMARK                            x       y       z     vdW  Elec       q    Type
REMARK                         _______ _______ _______ _____ _____    ______ ____
ROOT
ATOM      1  O   HOH     1       6.421   9.809  46.602  0.00  0.00    +0.000 OA
ENDROOT
TORSDOF 0
REMARK  Name = ../refined-set-2016/5c1w/5c1w_pocket.pdb
REMARK  131 active torsions:
REMARK  status: ('A' for Active; 'I' for Inactive)
REMARK    1  A    between atoms: _1  and  _3
REMARK    2  A    between atoms: _3  and  _4
REMARK    3  A    between atoms: _3  and  _6
REMARK    4  A    between atoms: _6  and  _7
REMARK    5  A    between atoms: _12  and  _13
REMARK    6  A    between atoms: _15  and  _17
REMARK    7  A    between atoms: _17  and  _18
REMARK    8  A    between atoms: _17  and  _20
REMARK    9  A    between atoms: _20  and  _21
REMARK   10  A    between atoms: _26  and  _28
REMARK   11  A    between atoms: _28  and  _29
REMARK   12  A    between atoms: _28  and  _31
REMARK   13  A    between atoms: _31  and  _32
REMARK   14  A    between atoms: _36  and  ZN_323
REMARK   15  A    between atoms: _37  and  _39
REMARK   16  A    between atoms: _39  and  _40
REMARK   17  A    between atoms: _39  and  _42
REMARK   18  A    between atoms: _42  and  _43
REMARK   19  A    between atoms: _46  and  _48
REMARK   20  A    between atoms: _48  and  _49
REMARK   21  A    between atoms: _48  and  _51
REMARK   22  A    between atoms: _51  and  _52
REMARK   23  A    between atoms: _55  and  _57
REMARK   24  A    between atoms: _57  and  _58
REMARK   25  A    between atoms: _57  and  _60
REMARK   26  A    between atoms: _60  and  _61
REMARK   27  A    between atoms: _64  and  _66
REMARK   28  A    between atoms: _66  and  _67
REMARK   29  A    between atoms: _66  and  _69
REMARK   30  A    between atoms: _71  and  _73
REMARK   31  A    between atoms: _73  and  _74
REMARK   32  A    between atoms: _73  and  _76
REMARK   33  A    between atoms: _76  and  _77
REMARK   34  A    between atoms: _77  and  _78
REMARK   35  A    between atoms: _78  and  ZN_323
REMARK   36  A    between atoms: _80  and  _82
REMARK   37  A    between atoms: _82  and  _83
REMARK   38  A    between atoms: _82  and  _85
REMARK   39  A    between atoms: _85  and  _86
REMARK   40  A    between atoms: _89  and  _91
REMARK   41  A    between atoms: _91  and  _92
REMARK   42  A    between atoms: _91  and  _94
REMARK   43  A    between atoms: _96  and  _98
REMARK   44  A    between atoms: _98  and  _99
REMARK   45  A    between atoms: _98  and  _101
REMARK   46  A    between atoms: _101  and  _102
REMARK   47  A    between atoms: _104  and  _106
REMARK   48  A    between atoms: _106  and  _107
REMARK   49  A    between atoms: _106  and  _109
REMARK   50  A    between atoms: _112  and  _114
REMARK   51  A    between atoms: _114  and  _115
REMARK   52  A    between atoms: _114  and  _117
REMARK   53  A    between atoms: _117  and  _118
REMARK   54  A    between atoms: _121  and  _123
REMARK   55  A    between atoms: _123  and  _124
REMARK   56  A    between atoms: _123  and  _126
REMARK   57  A    between atoms: _126  and  _127
REMARK   58  A    between atoms: _130  and  _132
REMARK   59  A    between atoms: _132  and  _133
REMARK   60  A    between atoms: _132  and  _135
REMARK   61  A    between atoms: _135  and  _136
REMARK   62  A    between atoms: _139  and  _141
REMARK   63  A    between atoms: _141  and  _142
REMARK   64  A    between atoms: _145  and  _147
REMARK   65  A    between atoms: _147  and  _148
REMARK   66  A    between atoms: _147  and  _150
REMARK   67  A    between atoms: _150  and  _151
REMARK   68  A    between atoms: _154  and  _156
REMARK   69  A    between atoms: _156  and  _157
REMARK   70  A    between atoms: _156  and  _159
REMARK   71  A    between atoms: _159  and  _160
REMARK   72  A    between atoms: _165  and  _166
REMARK   73  A    between atoms: _168  and  _170
REMARK   74  A    between atoms: _170  and  _171
REMARK   75  A    between atoms: _170  and  _173
REMARK   76  A    between atoms: _173  and  _174
REMARK   77  A    between atoms: _180  and  _182
REMARK   78  A    between atoms: _182  and  _183
REMARK   79  A    between atoms: _182  and  _185
REMARK   80  A    between atoms: _185  and  _186
REMARK   81  A    between atoms: _196  and  _198
REMARK   82  A    between atoms: _198  and  _199
REMARK   83  A    between atoms: _198  and  _201
REMARK   84  A    between atoms: _201  and  _202
REMARK   85  A    between atoms: _202  and  _203
REMARK   86  A    between atoms: _205  and  _207
REMARK   87  A    between atoms: _207  and  _208
REMARK   88  A    between atoms: _207  and  _210
REMARK   89  A    between atoms: _210  and  _211
REMARK   90  A    between atoms: _211  and  _212
REMARK   91  A    between atoms: _214  and  _216
REMARK   92  A    between atoms: _216  and  _217
REMARK   93  A    between atoms: _216  and  _219
REMARK   94  A    between atoms: _222  and  _224
REMARK   95  A    between atoms: _224  and  _225
REMARK   96  A    between atoms: _227  and  _229
REMARK   97  A    between atoms: _229  and  _230
REMARK   98  A    between atoms: _229  and  _232
REMARK   99  A    between atoms: _232  and  _233
REMARK  100  A    between atoms: _233  and  _234
REMARK  101  A    between atoms: _239  and  _241
REMARK  102  A    between atoms: _241  and  _242
REMARK  103  A    between atoms: _241  and  _244
REMARK  104  A    between atoms: _244  and  _245
REMARK  105  A    between atoms: _248  and  _250
REMARK  106  A    between atoms: _250  and  _251
REMARK  107  A    between atoms: _253  and  _255
REMARK  108  A    between atoms: _255  and  _256
REMARK  109  A    between atoms: _255  and  _258
REMARK  110  A    between atoms: _258  and  _259
REMARK  111  A    between atoms: _265  and  _267
REMARK  112  A    between atoms: _267  and  _268
REMARK  113  A    between atoms: _267  and  _270
REMARK  114  A    between atoms: _270  and  _271
REMARK  115  A    between atoms: _276  and  _277
REMARK  116  A    between atoms: _279  and  _281
REMARK  117  A    between atoms: _281  and  _282
REMARK  118  A    between atoms: _281  and  _284
REMARK  119  A    between atoms: _287  and  _289
REMARK  120  A    between atoms: _289  and  _290
REMARK  121  A    between atoms: _293  and  _295
REMARK  122  A    between atoms: _295  and  _296
REMARK  123  A    between atoms: _295  and  _298
REMARK  124  A    between atoms: _298  and  _299
REMARK  125  A    between atoms: _304  and  _305
REMARK  126  A    between atoms: _307  and  _309
REMARK  127  A    between atoms: _309  and  _310
REMARK  128  A    between atoms: _309  and  _312
REMARK  129  A    between atoms: _312  and  _313
REMARK  130  A    between atoms: ZN_323  and  _327
REMARK  131  A    between atoms: MG_324  and  _327
REMARK                            x       y       z     vdW  Elec       q    Type
REMARK                         _______ _______ _______ _____ _____    ______ ____
ROOT
ATOM      1  O   HOH     1      12.299  11.521  41.047  0.00  0.00    +0.000 OA
ENDROOT
TORSDOF 0
REMARK  Name = ../refined-set-2016/5c1w/5c1w_pocket.pdb
REMARK  131 active torsions:
REMARK  status: ('A' for Active; 'I' for Inactive)
REMARK    1  A    between atoms: _1  and  _3
REMARK    2  A    between atoms: _3  and  _4
REMARK    3  A    between atoms: _3  and  _6
REMARK    4  A    between atoms: _6  and  _7
REMARK    5  A    between atoms: _12  and  _13
REMARK    6  A    between atoms: _15  and  _17
REMARK    7  A    between atoms: _17  and  _18
REMARK    8  A    between atoms: _17  and  _20
REMARK    9  A    between atoms: _20  and  _21
REMARK   10  A    between atoms: _26  and  _28
REMARK   11  A    between atoms: _28  and  _29
REMARK   12  A    between atoms: _28  and  _31
REMARK   13  A    between atoms: _31  and  _32
REMARK   14  A    between atoms: _36  and  ZN_323
REMARK   15  A    between atoms: _37  and  _39
REMARK   16  A    between atoms: _39  and  _40
REMARK   17  A    between atoms: _39  and  _42
REMARK   18  A    between atoms: _42  and  _43
REMARK   19  A    between atoms: _46  and  _48
REMARK   20  A    between atoms: _48  and  _49
REMARK   21  A    between atoms: _48  and  _51
REMARK   22  A    between atoms: _51  and  _52
REMARK   23  A    between atoms: _55  and  _57
REMARK   24  A    between atoms: _57  and  _58
REMARK   25  A    between atoms: _57  and  _60
REMARK   26  A    between atoms: _60  and  _61
REMARK   27  A    between atoms: _64  and  _66
REMARK   28  A    between atoms: _66  and  _67
REMARK   29  A    between atoms: _66  and  _69
REMARK   30  A    between atoms: _71  and  _73
REMARK   31  A    between atoms: _73  and  _74
REMARK   32  A    between atoms: _73  and  _76
REMARK   33  A    between atoms: _76  and  _77
REMARK   34  A    between atoms: _77  and  _78
REMARK   35  A    between atoms: _78  and  ZN_323
REMARK   36  A    between atoms: _80  and  _82
REMARK   37  A    between atoms: _82  and  _83
REMARK   38  A    between atoms: _82  and  _85
REMARK   39  A    between atoms: _85  and  _86
REMARK   40  A    between atoms: _89  and  _91
REMARK   41  A    between atoms: _91  and  _92
REMARK   42  A    between atoms: _91  and  _94
REMARK   43  A    between atoms: _96  and  _98
REMARK   44  A    between atoms: _98  and  _99
REMARK   45  A    between atoms: _98  and  _101
REMARK   46  A    between atoms: _101  and  _102
REMARK   47  A    between atoms: _104  and  _106
REMARK   48  A    between atoms: _106  and  _107
REMARK   49  A    between atoms: _106  and  _109
REMARK   50  A    between atoms: _112  and  _114
REMARK   51  A    between atoms: _114  and  _115
REMARK   52  A    between atoms: _114  and  _117
REMARK   53  A    between atoms: _117  and  _118
REMARK   54  A    between atoms: _121  and  _123
REMARK   55  A    between atoms: _123  and  _124
REMARK   56  A    between atoms: _123  and  _126
REMARK   57  A    between atoms: _126  and  _127
REMARK   58  A    between atoms: _130  and  _132
REMARK   59  A    between atoms: _132  and  _133
REMARK   60  A    between atoms: _132  and  _135
REMARK   61  A    between atoms: _135  and  _136
REMARK   62  A    between atoms: _139  and  _141
REMARK   63  A    between atoms: _141  and  _142
REMARK   64  A    between atoms: _145  and  _147
REMARK   65  A    between atoms: _147  and  _148
REMARK   66  A    between atoms: _147  and  _150
REMARK   67  A    between atoms: _150  and  _151
REMARK   68  A    between atoms: _154  and  _156
REMARK   69  A    between atoms: _156  and  _157
REMARK   70  A    between atoms: _156  and  _159
REMARK   71  A    between atoms: _159  and  _160
REMARK   72  A    between atoms: _165  and  _166
REMARK   73  A    between atoms: _168  and  _170
REMARK   74  A    between atoms: _170  and  _171
REMARK   75  A    between atoms: _170  and  _173
REMARK   76  A    between atoms: _173  and  _174
REMARK   77  A    between atoms: _180  and  _182
REMARK   78  A    between atoms: _182  and  _183
REMARK   79  A    between atoms: _182  and  _185
REMARK   80  A    between atoms: _185  and  _186
REMARK   81  A    between atoms: _196  and  _198
REMARK   82  A    between atoms: _198  and  _199
REMARK   83  A    between atoms: _198  and  _201
REMARK   84  A    between atoms: _201  and  _202
REMARK   85  A    between atoms: _202  and  _203
REMARK   86  A    between atoms: _205  and  _207
REMARK   87  A    between atoms: _207  and  _208
REMARK   88  A    between atoms: _207  and  _210
REMARK   89  A    between atoms: _210  and  _211
REMARK   90  A    between atoms: _211  and  _212
REMARK   91  A    between atoms: _214  and  _216
REMARK   92  A    between atoms: _216  and  _217
REMARK   93  A    between atoms: _216  and  _219
REMARK   94  A    between atoms: _222  and  _224
REMARK   95  A    between atoms: _224  and  _225
REMARK   96  A    between atoms: _227  and  _229
REMARK   97  A    between atoms: _229  and  _230
REMARK   98  A    between atoms: _229  and  _232
REMARK   99  A    between atoms: _232  and  _233
REMARK  100  A    between atoms: _233  and  _234
REMARK  101  A    between atoms: _239  and  _241
REMARK  102  A    between atoms: _241  and  _242
REMARK  103  A    between atoms: _241  and  _244
REMARK  104  A    between atoms: _244  and  _245
REMARK  105  A    between atoms: _248  and  _250
REMARK  106  A    between atoms: _250  and  _251
REMARK  107  A    between atoms: _253  and  _255
REMARK  108  A    between atoms: _255  and  _256
REMARK  109  A    between atoms: _255  and  _258
REMARK  110  A    between atoms: _258  and  _259
REMARK  111  A    between atoms: _265  and  _267
REMARK  112  A    between atoms: _267  and  _268
REMARK  113  A    between atoms: _267  and  _270
REMARK  114  A    between atoms: _270  and  _271
REMARK  115  A    between atoms: _276  and  _277
REMARK  116  A    between atoms: _279  and  _281
REMARK  117  A    between atoms: _281  and  _282
REMARK  118  A    between atoms: _281  and  _284
REMARK  119  A    between atoms: _287  and  _289
REMARK  120  A    between atoms: _289  and  _290
REMARK  121  A    between atoms: _293  and  _295
REMARK  122  A    between atoms: _295  and  _296
REMARK  123  A    between atoms: _295  and  _298
REMARK  124  A    between atoms: _298  and  _299
REMARK  125  A    between atoms: _304  and  _305
REMARK  126  A    between atoms: _307  and  _309
REMARK  127  A    between atoms: _309  and  _310
REMARK  128  A    between atoms: _309  and  _312
REMARK  129  A    between atoms: _312  and  _313
REMARK  130  A    between atoms: ZN_323  and  _327
REMARK  131  A    between atoms: MG_324  and  _327
REMARK                            x       y       z     vdW  Elec       q    Type
REMARK                         _______ _______ _______ _____ _____    ______ ____
ROOT
ATOM      1  O   HOH     1      11.266   6.927  41.595  0.00  0.00    +0.000 OA
ENDROOT
TORSDOF 0
REMARK  Name = ../refined-set-2016/5c1w/5c1w_pocket.pdb
REMARK  131 active torsions:
REMARK  status: ('A' for Active; 'I' for Inactive)
REMARK    1  A    between atoms: _1  and  _3
REMARK    2  A    between atoms: _3  and  _4
REMARK    3  A    between atoms: _3  and  _6
REMARK    4  A    between atoms: _6  and  _7
REMARK    5  A    between atoms: _12  and  _13
REMARK    6  A    between atoms: _15  and  _17
REMARK    7  A    between atoms: _17  and  _18
REMARK    8  A    between atoms: _17  and  _20
REMARK    9  A    between atoms: _20  and  _21
REMARK   10  A    between atoms: _26  and  _28
REMARK   11  A    between atoms: _28  and  _29
REMARK   12  A    between atoms: _28  and  _31
REMARK   13  A    between atoms: _31  and  _32
REMARK   14  A    between atoms: _36  and  ZN_323
REMARK   15  A    between atoms: _37  and  _39
REMARK   16  A    between atoms: _39  and  _40
REMARK   17  A    between atoms: _39  and  _42
REMARK   18  A    between atoms: _42  and  _43
REMARK   19  A    between atoms: _46  and  _48
REMARK   20  A    between atoms: _48  and  _49
REMARK   21  A    between atoms: _48  and  _51
REMARK   22  A    between atoms: _51  and  _52
REMARK   23  A    between atoms: _55  and  _57
REMARK   24  A    between atoms: _57  and  _58
REMARK   25  A    between atoms: _57  and  _60
REMARK   26  A    between atoms: _60  and  _61
REMARK   27  A    between atoms: _64  and  _66
REMARK   28  A    between atoms: _66  and  _67
REMARK   29  A    between atoms: _66  and  _69
REMARK   30  A    between atoms: _71  and  _73
REMARK   31  A    between atoms: _73  and  _74
REMARK   32  A    between atoms: _73  and  _76
REMARK   33  A    between atoms: _76  and  _77
REMARK   34  A    between atoms: _77  and  _78
REMARK   35  A    between atoms: _78  and  ZN_323
REMARK   36  A    between atoms: _80  and  _82
REMARK   37  A    between atoms: _82  and  _83
REMARK   38  A    between atoms: _82  and  _85
REMARK   39  A    between atoms: _85  and  _86
REMARK   40  A    between atoms: _89  and  _91
REMARK   41  A    between atoms: _91  and  _92
REMARK   42  A    between atoms: _91  and  _94
REMARK   43  A    between atoms: _96  and  _98
REMARK   44  A    between atoms: _98  and  _99
REMARK   45  A    between atoms: _98  and  _101
REMARK   46  A    between atoms: _101  and  _102
REMARK   47  A    between atoms: _104  and  _106
REMARK   48  A    between atoms: _106  and  _107
REMARK   49  A    between atoms: _106  and  _109
REMARK   50  A    between atoms: _112  and  _114
REMARK   51  A    between atoms: _114  and  _115
REMARK   52  A    between atoms: _114  and  _117
REMARK   53  A    between atoms: _117  and  _118
REMARK   54  A    between atoms: _121  and  _123
REMARK   55  A    between atoms: _123  and  _124
REMARK   56  A    between atoms: _123  and  _126
REMARK   57  A    between atoms: _126  and  _127
REMARK   58  A    between atoms: _130  and  _132
REMARK   59  A    between atoms: _132  and  _133
REMARK   60  A    between atoms: _132  and  _135
REMARK   61  A    between atoms: _135  and  _136
REMARK   62  A    between atoms: _139  and  _141
REMARK   63  A    between atoms: _141  and  _142
REMARK   64  A    between atoms: _145  and  _147
REMARK   65  A    between atoms: _147  and  _148
REMARK   66  A    between atoms: _147  and  _150
REMARK   67  A    between atoms: _150  and  _151
REMARK   68  A    between atoms: _154  and  _156
REMARK   69  A    between atoms: _156  and  _157
REMARK   70  A    between atoms: _156  and  _159
REMARK   71  A    between atoms: _159  and  _160
REMARK   72  A    between atoms: _165  and  _166
REMARK   73  A    between atoms: _168  and  _170
REMARK   74  A    between atoms: _170  and  _171
REMARK   75  A    between atoms: _170  and  _173
REMARK   76  A    between atoms: _173  and  _174
REMARK   77  A    between atoms: _180  and  _182
REMARK   78  A    between atoms: _182  and  _183
REMARK   79  A    between atoms: _182  and  _185
REMARK   80  A    between atoms: _185  and  _186
REMARK   81  A    between atoms: _196  and  _198
REMARK   82  A    between atoms: _198  and  _199
REMARK   83  A    between atoms: _198  and  _201
REMARK   84  A    between atoms: _201  and  _202
REMARK   85  A    between atoms: _202  and  _203
REMARK   86  A    between atoms: _205  and  _207
REMARK   87  A    between atoms: _207  and  _208
REMARK   88  A    between atoms: _207  and  _210
REMARK   89  A    between atoms: _210  and  _211
REMARK   90  A    between atoms: _211  and  _212
REMARK   91  A    between atoms: _214  and  _216
REMARK   92  A    between atoms: _216  and  _217
REMARK   93  A    between atoms: _216  and  _219
REMARK   94  A    between atoms: _222  and  _224
REMARK   95  A    between atoms: _224  and  _225
REMARK   96  A    between atoms: _227  and  _229
REMARK   97  A    between atoms: _229  and  _230
REMARK   98  A    between atoms: _229  and  _232
REMARK   99  A    between atoms: _232  and  _233
REMARK  100  A    between atoms: _233  and  _234
REMARK  101  A    between atoms: _239  and  _241
REMARK  102  A    between atoms: _241  and  _242
REMARK  103  A    between atoms: _241  and  _244
REMARK  104  A    between atoms: _244  and  _245
REMARK  105  A    between atoms: _248  and  _250
REMARK  106  A    between atoms: _250  and  _251
REMARK  107  A    between atoms: _253  and  _255
REMARK  108  A    between atoms: _255  and  _256
REMARK  109  A    between atoms: _255  and  _258
REMARK  110  A    between atoms: _258  and  _259
REMARK  111  A    between atoms: _265  and  _267
REMARK  112  A    between atoms: _267  and  _268
REMARK  113  A    between atoms: _267  and  _270
REMARK  114  A    between atoms: _270  and  _271
REMARK  115  A    between atoms: _276  and  _277
REMARK  116  A    between atoms: _279  and  _281
REMARK  117  A    between atoms: _281  and  _282
REMARK  118  A    between atoms: _281  and  _284
REMARK  119  A    between atoms: _287  and  _289
REMARK  120  A    between atoms: _289  and  _290
REMARK  121  A    between atoms: _293  and  _295
REMARK  122  A    between atoms: _295  and  _296
REMARK  123  A    between atoms: _295  and  _298
REMARK  124  A    between atoms: _298  and  _299
REMARK  125  A    between atoms: _304  and  _305
REMARK  126  A    between atoms: _307  and  _309
REMARK  127  A    between atoms: _309  and  _310
REMARK  128  A    between atoms: _309  and  _312
REMARK  129  A    between atoms: _312  and  _313
REMARK  130  A    between atoms: ZN_323  and  _327
REMARK  131  A    between atoms: MG_324  and  _327
REMARK                            x       y       z     vdW  Elec       q    Type
REMARK                         _______ _______ _______ _____ _____    ______ ____
ROOT
ATOM      1  O   HOH     1       4.842  11.999  49.676  0.00  0.00    +0.000 OA
ENDROOT
TORSDOF 0
REMARK  Name = ../refined-set-2016/5c1w/5c1w_pocket.pdb
REMARK  131 active torsions:
REMARK  status: ('A' for Active; 'I' for Inactive)
REMARK    1  A    between atoms: _1  and  _3
REMARK    2  A    between atoms: _3  and  _4
REMARK    3  A    between atoms: _3  and  _6
REMARK    4  A    between atoms: _6  and  _7
REMARK    5  A    between atoms: _12  and  _13
REMARK    6  A    between atoms: _15  and  _17
REMARK    7  A    between atoms: _17  and  _18
REMARK    8  A    between atoms: _17  and  _20
REMARK    9  A    between atoms: _20  and  _21
REMARK   10  A    between atoms: _26  and  _28
REMARK   11  A    between atoms: _28  and  _29
REMARK   12  A    between atoms: _28  and  _31
REMARK   13  A    between atoms: _31  and  _32
REMARK   14  A    between atoms: _36  and  ZN_323
REMARK   15  A    between atoms: _37  and  _39
REMARK   16  A    between atoms: _39  and  _40
REMARK   17  A    between atoms: _39  and  _42
REMARK   18  A    between atoms: _42  and  _43
REMARK   19  A    between atoms: _46  and  _48
REMARK   20  A    between atoms: _48  and  _49
REMARK   21  A    between atoms: _48  and  _51
REMARK   22  A    between atoms: _51  and  _52
REMARK   23  A    between atoms: _55  and  _57
REMARK   24  A    between atoms: _57  and  _58
REMARK   25  A    between atoms: _57  and  _60
REMARK   26  A    between atoms: _60  and  _61
REMARK   27  A    between atoms: _64  and  _66
REMARK   28  A    between atoms: _66  and  _67
REMARK   29  A    between atoms: _66  and  _69
REMARK   30  A    between atoms: _71  and  _73
REMARK   31  A    between atoms: _73  and  _74
REMARK   32  A    between atoms: _73  and  _76
REMARK   33  A    between atoms: _76  and  _77
REMARK   34  A    between atoms: _77  and  _78
REMARK   35  A    between atoms: _78  and  ZN_323
REMARK   36  A    between atoms: _80  and  _82
REMARK   37  A    between atoms: _82  and  _83
REMARK   38  A    between atoms: _82  and  _85
REMARK   39  A    between atoms: _85  and  _86
REMARK   40  A    between atoms: _89  and  _91
REMARK   41  A    between atoms: _91  and  _92
REMARK   42  A    between atoms: _91  and  _94
REMARK   43  A    between atoms: _96  and  _98
REMARK   44  A    between atoms: _98  and  _99
REMARK   45  A    between atoms: _98  and  _101
REMARK   46  A    between atoms: _101  and  _102
REMARK   47  A    between atoms: _104  and  _106
REMARK   48  A    between atoms: _106  and  _107
REMARK   49  A    between atoms: _106  and  _109
REMARK   50  A    between atoms: _112  and  _114
REMARK   51  A    between atoms: _114  and  _115
REMARK   52  A    between atoms: _114  and  _117
REMARK   53  A    between atoms: _117  and  _118
REMARK   54  A    between atoms: _121  and  _123
REMARK   55  A    between atoms: _123  and  _124
REMARK   56  A    between atoms: _123  and  _126
REMARK   57  A    between atoms: _126  and  _127
REMARK   58  A    between atoms: _130  and  _132
REMARK   59  A    between atoms: _132  and  _133
REMARK   60  A    between atoms: _132  and  _135
REMARK   61  A    between atoms: _135  and  _136
REMARK   62  A    between atoms: _139  and  _141
REMARK   63  A    between atoms: _141  and  _142
REMARK   64  A    between atoms: _145  and  _147
REMARK   65  A    between atoms: _147  and  _148
REMARK   66  A    between atoms: _147  and  _150
REMARK   67  A    between atoms: _150  and  _151
REMARK   68  A    between atoms: _154  and  _156
REMARK   69  A    between atoms: _156  and  _157
REMARK   70  A    between atoms: _156  and  _159
REMARK   71  A    between atoms: _159  and  _160
REMARK   72  A    between atoms: _165  and  _166
REMARK   73  A    between atoms: _168  and  _170
REMARK   74  A    between atoms: _170  and  _171
REMARK   75  A    between atoms: _170  and  _173
REMARK   76  A    between atoms: _173  and  _174
REMARK   77  A    between atoms: _180  and  _182
REMARK   78  A    between atoms: _182  and  _183
REMARK   79  A    between atoms: _182  and  _185
REMARK   80  A    between atoms: _185  and  _186
REMARK   81  A    between atoms: _196  and  _198
REMARK   82  A    between atoms: _198  and  _199
REMARK   83  A    between atoms: _198  and  _201
REMARK   84  A    between atoms: _201  and  _202
REMARK   85  A    between atoms: _202  and  _203
REMARK   86  A    between atoms: _205  and  _207
REMARK   87  A    between atoms: _207  and  _208
REMARK   88  A    between atoms: _207  and  _210
REMARK   89  A    between atoms: _210  and  _211
REMARK   90  A    between atoms: _211  and  _212
REMARK   91  A    between atoms: _214  and  _216
REMARK   92  A    between atoms: _216  and  _217
REMARK   93  A    between atoms: _216  and  _219
REMARK   94  A    between atoms: _222  and  _224
REMARK   95  A    between atoms: _224  and  _225
REMARK   96  A    between atoms: _227  and  _229
REMARK   97  A    between atoms: _229  and  _230
REMARK   98  A    between atoms: _229  and  _232
REMARK   99  A    between atoms: _232  and  _233
REMARK  100  A    between atoms: _233  and  _234
REMARK  101  A    between atoms: _239  and  _241
REMARK  102  A    between atoms: _241  and  _242
REMARK  103  A    between atoms: _241  and  _244
REMARK  104  A    between atoms: _244  and  _245
REMARK  105  A    between atoms: _248  and  _250
REMARK  106  A    between atoms: _250  and  _251
REMARK  107  A    between atoms: _253  and  _255
REMARK  108  A    between atoms: _255  and  _256
REMARK  109  A    between atoms: _255  and  _258
REMARK  110  A    between atoms: _258  and  _259
REMARK  111  A    between atoms: _265  and  _267
REMARK  112  A    between atoms: _267  and  _268
REMARK  113  A    between atoms: _267  and  _270
REMARK  114  A    between atoms: _270  and  _271
REMARK  115  A    between atoms: _276  and  _277
REMARK  116  A    between atoms: _279  and  _281
REMARK  117  A    between atoms: _281  and  _282
REMARK  118  A    between atoms: _281  and  _284
REMARK  119  A    between atoms: _287  and  _289
REMARK  120  A    between atoms: _289  and  _290
REMARK  121  A    between atoms: _293  and  _295
REMARK  122  A    between atoms: _295  and  _296
REMARK  123  A    between atoms: _295  and  _298
REMARK  124  A    between atoms: _298  and  _299
REMARK  125  A    between atoms: _304  and  _305
REMARK  126  A    between atoms: _307  and  _309
REMARK  127  A    between atoms: _309  and  _310
REMARK  128  A    between atoms: _309  and  _312
REMARK  129  A    between atoms: _312  and  _313
REMARK  130  A    between atoms: ZN_323  and  _327
REMARK  131  A    between atoms: MG_324  and  _327
REMARK                            x       y       z     vdW  Elec       q    Type
REMARK                         _______ _______ _______ _____ _____    ______ ____
ROOT
ATOM      1  O   HOH     1       9.894   6.594  44.063  0.00  0.00    +0.000 OA
ENDROOT
TORSDOF 0
REMARK  Name = ../refined-set-2016/5c1w/5c1w_pocket.pdb
REMARK  131 active torsions:
REMARK  status: ('A' for Active; 'I' for Inactive)
REMARK    1  A    between atoms: _1  and  _3
REMARK    2  A    between atoms: _3  and  _4
REMARK    3  A    between atoms: _3  and  _6
REMARK    4  A    between atoms: _6  and  _7
REMARK    5  A    between atoms: _12  and  _13
REMARK    6  A    between atoms: _15  and  _17
REMARK    7  A    between atoms: _17  and  _18
REMARK    8  A    between atoms: _17  and  _20
REMARK    9  A    between atoms: _20  and  _21
REMARK   10  A    between atoms: _26  and  _28
REMARK   11  A    between atoms: _28  and  _29
REMARK   12  A    between atoms: _28  and  _31
REMARK   13  A    between atoms: _31  and  _32
REMARK   14  A    between atoms: _36  and  ZN_323
REMARK   15  A    between atoms: _37  and  _39
REMARK   16  A    between atoms: _39  and  _40
REMARK   17  A    between atoms: _39  and  _42
REMARK   18  A    between atoms: _42  and  _43
REMARK   19  A    between atoms: _46  and  _48
REMARK   20  A    between atoms: _48  and  _49
REMARK   21  A    between atoms: _48  and  _51
REMARK   22  A    between atoms: _51  and  _52
REMARK   23  A    between atoms: _55  and  _57
REMARK   24  A    between atoms: _57  and  _58
REMARK   25  A    between atoms: _57  and  _60
REMARK   26  A    between atoms: _60  and  _61
REMARK   27  A    between atoms: _64  and  _66
REMARK   28  A    between atoms: _66  and  _67
REMARK   29  A    between atoms: _66  and  _69
REMARK   30  A    between atoms: _71  and  _73
REMARK   31  A    between atoms: _73  and  _74
REMARK   32  A    between atoms: _73  and  _76
REMARK   33  A    between atoms: _76  and  _77
REMARK   34  A    between atoms: _77  and  _78
REMARK   35  A    between atoms: _78  and  ZN_323
REMARK   36  A    between atoms: _80  and  _82
REMARK   37  A    between atoms: _82  and  _83
REMARK   38  A    between atoms: _82  and  _85
REMARK   39  A    between atoms: _85  and  _86
REMARK   40  A    between atoms: _89  and  _91
REMARK   41  A    between atoms: _91  and  _92
REMARK   42  A    between atoms: _91  and  _94
REMARK   43  A    between atoms: _96  and  _98
REMARK   44  A    between atoms: _98  and  _99
REMARK   45  A    between atoms: _98  and  _101
REMARK   46  A    between atoms: _101  and  _102
REMARK   47  A    between atoms: _104  and  _106
REMARK   48  A    between atoms: _106  and  _107
REMARK   49  A    between atoms: _106  and  _109
REMARK   50  A    between atoms: _112  and  _114
REMARK   51  A    between atoms: _114  and  _115
REMARK   52  A    between atoms: _114  and  _117
REMARK   53  A    between atoms: _117  and  _118
REMARK   54  A    between atoms: _121  and  _123
REMARK   55  A    between atoms: _123  and  _124
REMARK   56  A    between atoms: _123  and  _126
REMARK   57  A    between atoms: _126  and  _127
REMARK   58  A    between atoms: _130  and  _132
REMARK   59  A    between atoms: _132  and  _133
REMARK   60  A    between atoms: _132  and  _135
REMARK   61  A    between atoms: _135  and  _136
REMARK   62  A    between atoms: _139  and  _141
REMARK   63  A    between atoms: _141  and  _142
REMARK   64  A    between atoms: _145  and  _147
REMARK   65  A    between atoms: _147  and  _148
REMARK   66  A    between atoms: _147  and  _150
REMARK   67  A    between atoms: _150  and  _151
REMARK   68  A    between atoms: _154  and  _156
REMARK   69  A    between atoms: _156  and  _157
REMARK   70  A    between atoms: _156  and  _159
REMARK   71  A    between atoms: _159  and  _160
REMARK   72  A    between atoms: _165  and  _166
REMARK   73  A    between atoms: _168  and  _170
REMARK   74  A    between atoms: _170  and  _171
REMARK   75  A    between atoms: _170  and  _173
REMARK   76  A    between atoms: _173  and  _174
REMARK   77  A    between atoms: _180  and  _182
REMARK   78  A    between atoms: _182  and  _183
REMARK   79  A    between atoms: _182  and  _185
REMARK   80  A    between atoms: _185  and  _186
REMARK   81  A    between atoms: _196  and  _198
REMARK   82  A    between atoms: _198  and  _199
REMARK   83  A    between atoms: _198  and  _201
REMARK   84  A    between atoms: _201  and  _202
REMARK   85  A    between atoms: _202  and  _203
REMARK   86  A    between atoms: _205  and  _207
REMARK   87  A    between atoms: _207  and  _208
REMARK   88  A    between atoms: _207  and  _210
REMARK   89  A    between atoms: _210  and  _211
REMARK   90  A    between atoms: _211  and  _212
REMARK   91  A    between atoms: _214  and  _216
REMARK   92  A    between atoms: _216  and  _217
REMARK   93  A    between atoms: _216  and  _219
REMARK   94  A    between atoms: _222  and  _224
REMARK   95  A    between atoms: _224  and  _225
REMARK   96  A    between atoms: _227  and  _229
REMARK   97  A    between atoms: _229  and  _230
REMARK   98  A    between atoms: _229  and  _232
REMARK   99  A    between atoms: _232  and  _233
REMARK  100  A    between atoms: _233  and  _234
REMARK  101  A    between atoms: _239  and  _241
REMARK  102  A    between atoms: _241  and  _242
REMARK  103  A    between atoms: _241  and  _244
REMARK  104  A    between atoms: _244  and  _245
REMARK  105  A    between atoms: _248  and  _250
REMARK  106  A    between atoms: _250  and  _251
REMARK  107  A    between atoms: _253  and  _255
REMARK  108  A    between atoms: _255  and  _256
REMARK  109  A    between atoms: _255  and  _258
REMARK  110  A    between atoms: _258  and  _259
REMARK  111  A    between atoms: _265  and  _267
REMARK  112  A    between atoms: _267  and  _268
REMARK  113  A    between atoms: _267  and  _270
REMARK  114  A    between atoms: _270  and  _271
REMARK  115  A    between atoms: _276  and  _277
REMARK  116  A    between atoms: _279  and  _281
REMARK  117  A    between atoms: _281  and  _282
REMARK  118  A    between atoms: _281  and  _284
REMARK  119  A    between atoms: _287  and  _289
REMARK  120  A    between atoms: _289  and  _290
REMARK  121  A    between atoms: _293  and  _295
REMARK  122  A    between atoms: _295  and  _296
REMARK  123  A    between atoms: _295  and  _298
REMARK  124  A    between atoms: _298  and  _299
REMARK  125  A    between atoms: _304  and  _305
REMARK  126  A    between atoms: _307  and  _309
REMARK  127  A    between atoms: _309  and  _310
REMARK  128  A    between atoms: _309  and  _312
REMARK  129  A    between atoms: _312  and  _313
REMARK  130  A    between atoms: ZN_323  and  _327
REMARK  131  A    between atoms: MG_324  and  _327
REMARK                            x       y       z     vdW  Elec       q    Type
REMARK                         _______ _______ _______ _____ _____    ______ ____
ROOT
ATOM      1  O   HOH     1       3.213  17.395  47.817  0.00  0.00    +0.000 OA
ENDROOT
TORSDOF 0
REMARK  Name = ../refined-set-2016/5c1w/5c1w_pocket.pdb
REMARK  131 active torsions:
REMARK  status: ('A' for Active; 'I' for Inactive)
REMARK    1  A    between atoms: _1  and  _3
REMARK    2  A    between atoms: _3  and  _4
REMARK    3  A    between atoms: _3  and  _6
REMARK    4  A    between atoms: _6  and  _7
REMARK    5  A    between atoms: _12  and  _13
REMARK    6  A    between atoms: _15  and  _17
REMARK    7  A    between atoms: _17  and  _18
REMARK    8  A    between atoms: _17  and  _20
REMARK    9  A    between atoms: _20  and  _21
REMARK   10  A    between atoms: _26  and  _28
REMARK   11  A    between atoms: _28  and  _29
REMARK   12  A    between atoms: _28  and  _31
REMARK   13  A    between atoms: _31  and  _32
REMARK   14  A    between atoms: _36  and  ZN_323
REMARK   15  A    between atoms: _37  and  _39
REMARK   16  A    between atoms: _39  and  _40
REMARK   17  A    between atoms: _39  and  _42
REMARK   18  A    between atoms: _42  and  _43
REMARK   19  A    between atoms: _46  and  _48
REMARK   20  A    between atoms: _48  and  _49
REMARK   21  A    between atoms: _48  and  _51
REMARK   22  A    between atoms: _51  and  _52
REMARK   23  A    between atoms: _55  and  _57
REMARK   24  A    between atoms: _57  and  _58
REMARK   25  A    between atoms: _57  and  _60
REMARK   26  A    between atoms: _60  and  _61
REMARK   27  A    between atoms: _64  and  _66
REMARK   28  A    between atoms: _66  and  _67
REMARK   29  A    between atoms: _66  and  _69
REMARK   30  A    between atoms: _71  and  _73
REMARK   31  A    between atoms: _73  and  _74
REMARK   32  A    between atoms: _73  and  _76
REMARK   33  A    between atoms: _76  and  _77
REMARK   34  A    between atoms: _77  and  _78
REMARK   35  A    between atoms: _78  and  ZN_323
REMARK   36  A    between atoms: _80  and  _82
REMARK   37  A    between atoms: _82  and  _83
REMARK   38  A    between atoms: _82  and  _85
REMARK   39  A    between atoms: _85  and  _86
REMARK   40  A    between atoms: _89  and  _91
REMARK   41  A    between atoms: _91  and  _92
REMARK   42  A    between atoms: _91  and  _94
REMARK   43  A    between atoms: _96  and  _98
REMARK   44  A    between atoms: _98  and  _99
REMARK   45  A    between atoms: _98  and  _101
REMARK   46  A    between atoms: _101  and  _102
REMARK   47  A    between atoms: _104  and  _106
REMARK   48  A    between atoms: _106  and  _107
REMARK   49  A    between atoms: _106  and  _109
REMARK   50  A    between atoms: _112  and  _114
REMARK   51  A    between atoms: _114  and  _115
REMARK   52  A    between atoms: _114  and  _117
REMARK   53  A    between atoms: _117  and  _118
REMARK   54  A    between atoms: _121  and  _123
REMARK   55  A    between atoms: _123  and  _124
REMARK   56  A    between atoms: _123  and  _126
REMARK   57  A    between atoms: _126  and  _127
REMARK   58  A    between atoms: _130  and  _132
REMARK   59  A    between atoms: _132  and  _133
REMARK   60  A    between atoms: _132  and  _135
REMARK   61  A    between atoms: _135  and  _136
REMARK   62  A    between atoms: _139  and  _141
REMARK   63  A    between atoms: _141  and  _142
REMARK   64  A    between atoms: _145  and  _147
REMARK   65  A    between atoms: _147  and  _148
REMARK   66  A    between atoms: _147  and  _150
REMARK   67  A    between atoms: _150  and  _151
REMARK   68  A    between atoms: _154  and  _156
REMARK   69  A    between atoms: _156  and  _157
REMARK   70  A    between atoms: _156  and  _159
REMARK   71  A    between atoms: _159  and  _160
REMARK   72  A    between atoms: _165  and  _166
REMARK   73  A    between atoms: _168  and  _170
REMARK   74  A    between atoms: _170  and  _171
REMARK   75  A    between atoms: _170  and  _173
REMARK   76  A    between atoms: _173  and  _174
REMARK   77  A    between atoms: _180  and  _182
REMARK   78  A    between atoms: _182  and  _183
REMARK   79  A    between atoms: _182  and  _185
REMARK   80  A    between atoms: _185  and  _186
REMARK   81  A    between atoms: _196  and  _198
REMARK   82  A    between atoms: _198  and  _199
REMARK   83  A    between atoms: _198  and  _201
REMARK   84  A    between atoms: _201  and  _202
REMARK   85  A    between atoms: _202  and  _203
REMARK   86  A    between atoms: _205  and  _207
REMARK   87  A    between atoms: _207  and  _208
REMARK   88  A    between atoms: _207  and  _210
REMARK   89  A    between atoms: _210  and  _211
REMARK   90  A    between atoms: _211  and  _212
REMARK   91  A    between atoms: _214  and  _216
REMARK   92  A    between atoms: _216  and  _217
REMARK   93  A    between atoms: _216  and  _219
REMARK   94  A    between atoms: _222  and  _224
REMARK   95  A    between atoms: _224  and  _225
REMARK   96  A    between atoms: _227  and  _229
REMARK   97  A    between atoms: _229  and  _230
REMARK   98  A    between atoms: _229  and  _232
REMARK   99  A    between atoms: _232  and  _233
REMARK  100  A    between atoms: _233  and  _234
REMARK  101  A    between atoms: _239  and  _241
REMARK  102  A    between atoms: _241  and  _242
REMARK  103  A    between atoms: _241  and  _244
REMARK  104  A    between atoms: _244  and  _245
REMARK  105  A    between atoms: _248  and  _250
REMARK  106  A    between atoms: _250  and  _251
REMARK  107  A    between atoms: _253  and  _255
REMARK  108  A    between atoms: _255  and  _256
REMARK  109  A    between atoms: _255  and  _258
REMARK  110  A    between atoms: _258  and  _259
REMARK  111  A    between atoms: _265  and  _267
REMARK  112  A    between atoms: _267  and  _268
REMARK  113  A    between atoms: _267  and  _270
REMARK  114  A    between atoms: _270  and  _271
REMARK  115  A    between atoms: _276  and  _277
REMARK  116  A    between atoms: _279  and  _281
REMARK  117  A    between atoms: _281  and  _282
REMARK  118  A    between atoms: _281  and  _284
REMARK  119  A    between atoms: _287  and  _289
REMARK  120  A    between atoms: _289  and  _290
REMARK  121  A    between atoms: _293  and  _295
REMARK  122  A    between atoms: _295  and  _296
REMARK  123  A    between atoms: _295  and  _298
REMARK  124  A    between atoms: _298  and  _299
REMARK  125  A    between atoms: _304  and  _305
REMARK  126  A    between atoms: _307  and  _309
REMARK  127  A    between atoms: _309  and  _310
REMARK  128  A    between atoms: _309  and  _312
REMARK  129  A    between atoms: _312  and  _313
REMARK  130  A    between atoms: ZN_323  and  _327
REMARK  131  A    between atoms: MG_324  and  _327
REMARK                            x       y       z     vdW  Elec       q    Type
REMARK                         _______ _______ _______ _____ _____    ______ ____
ROOT
ATOM      1  O   HOH     1      10.848  13.538  42.433  0.00  0.00    +0.000 OA
ENDROOT
TORSDOF 0
REMARK  Name = ../refined-set-2016/5c1w/5c1w_pocket.pdb
REMARK  131 active torsions:
REMARK  status: ('A' for Active; 'I' for Inactive)
REMARK    1  A    between atoms: _1  and  _3
REMARK    2  A    between atoms: _3  and  _4
REMARK    3  A    between atoms: _3  and  _6
REMARK    4  A    between atoms: _6  and  _7
REMARK    5  A    between atoms: _12  and  _13
REMARK    6  A    between atoms: _15  and  _17
REMARK    7  A    between atoms: _17  and  _18
REMARK    8  A    between atoms: _17  and  _20
REMARK    9  A    between atoms: _20  and  _21
REMARK   10  A    between atoms: _26  and  _28
REMARK   11  A    between atoms: _28  and  _29
REMARK   12  A    between atoms: _28  and  _31
REMARK   13  A    between atoms: _31  and  _32
REMARK   14  A    between atoms: _36  and  ZN_323
REMARK   15  A    between atoms: _37  and  _39
REMARK   16  A    between atoms: _39  and  _40
REMARK   17  A    between atoms: _39  and  _42
REMARK   18  A    between atoms: _42  and  _43
REMARK   19  A    between atoms: _46  and  _48
REMARK   20  A    between atoms: _48  and  _49
REMARK   21  A    between atoms: _48  and  _51
REMARK   22  A    between atoms: _51  and  _52
REMARK   23  A    between atoms: _55  and  _57
REMARK   24  A    between atoms: _57  and  _58
REMARK   25  A    between atoms: _57  and  _60
REMARK   26  A    between atoms: _60  and  _61
REMARK   27  A    between atoms: _64  and  _66
REMARK   28  A    between atoms: _66  and  _67
REMARK   29  A    between atoms: _66  and  _69
REMARK   30  A    between atoms: _71  and  _73
REMARK   31  A    between atoms: _73  and  _74
REMARK   32  A    between atoms: _73  and  _76
REMARK   33  A    between atoms: _76  and  _77
REMARK   34  A    between atoms: _77  and  _78
REMARK   35  A    between atoms: _78  and  ZN_323
REMARK   36  A    between atoms: _80  and  _82
REMARK   37  A    between atoms: _82  and  _83
REMARK   38  A    between atoms: _82  and  _85
REMARK   39  A    between atoms: _85  and  _86
REMARK   40  A    between atoms: _89  and  _91
REMARK   41  A    between atoms: _91  and  _92
REMARK   42  A    between atoms: _91  and  _94
REMARK   43  A    between atoms: _96  and  _98
REMARK   44  A    between atoms: _98  and  _99
REMARK   45  A    between atoms: _98  and  _101
REMARK   46  A    between atoms: _101  and  _102
REMARK   47  A    between atoms: _104  and  _106
REMARK   48  A    between atoms: _106  and  _107
REMARK   49  A    between atoms: _106  and  _109
REMARK   50  A    between atoms: _112  and  _114
REMARK   51  A    between atoms: _114  and  _115
REMARK   52  A    between atoms: _114  and  _117
REMARK   53  A    between atoms: _117  and  _118
REMARK   54  A    between atoms: _121  and  _123
REMARK   55  A    between atoms: _123  and  _124
REMARK   56  A    between atoms: _123  and  _126
REMARK   57  A    between atoms: _126  and  _127
REMARK   58  A    between atoms: _130  and  _132
REMARK   59  A    between atoms: _132  and  _133
REMARK   60  A    between atoms: _132  and  _135
REMARK   61  A    between atoms: _135  and  _136
REMARK   62  A    between atoms: _139  and  _141
REMARK   63  A    between atoms: _141  and  _142
REMARK   64  A    between atoms: _145  and  _147
REMARK   65  A    between atoms: _147  and  _148
REMARK   66  A    between atoms: _147  and  _150
REMARK   67  A    between atoms: _150  and  _151
REMARK   68  A    between atoms: _154  and  _156
REMARK   69  A    between atoms: _156  and  _157
REMARK   70  A    between atoms: _156  and  _159
REMARK   71  A    between atoms: _159  and  _160
REMARK   72  A    between atoms: _165  and  _166
REMARK   73  A    between atoms: _168  and  _170
REMARK   74  A    between atoms: _170  and  _171
REMARK   75  A    between atoms: _170  and  _173
REMARK   76  A    between atoms: _173  and  _174
REMARK   77  A    between atoms: _180  and  _182
REMARK   78  A    between atoms: _182  and  _183
REMARK   79  A    between atoms: _182  and  _185
REMARK   80  A    between atoms: _185  and  _186
REMARK   81  A    between atoms: _196  and  _198
REMARK   82  A    between atoms: _198  and  _199
REMARK   83  A    between atoms: _198  and  _201
REMARK   84  A    between atoms: _201  and  _202
REMARK   85  A    between atoms: _202  and  _203
REMARK   86  A    between atoms: _205  and  _207
REMARK   87  A    between atoms: _207  and  _208
REMARK   88  A    between atoms: _207  and  _210
REMARK   89  A    between atoms: _210  and  _211
REMARK   90  A    between atoms: _211  and  _212
REMARK   91  A    between atoms: _214  and  _216
REMARK   92  A    between atoms: _216  and  _217
REMARK   93  A    between atoms: _216  and  _219
REMARK   94  A    between atoms: _222  and  _224
REMARK   95  A    between atoms: _224  and  _225
REMARK   96  A    between atoms: _227  and  _229
REMARK   97  A    between atoms: _229  and  _230
REMARK   98  A    between atoms: _229  and  _232
REMARK   99  A    between atoms: _232  and  _233
REMARK  100  A    between atoms: _233  and  _234
REMARK  101  A    between atoms: _239  and  _241
REMARK  102  A    between atoms: _241  and  _242
REMARK  103  A    between atoms: _241  and  _244
REMARK  104  A    between atoms: _244  and  _245
REMARK  105  A    between atoms: _248  and  _250
REMARK  106  A    between atoms: _250  and  _251
REMARK  107  A    between atoms: _253  and  _255
REMARK  108  A    between atoms: _255  and  _256
REMARK  109  A    between atoms: _255  and  _258
REMARK  110  A    between atoms: _258  and  _259
REMARK  111  A    between atoms: _265  and  _267
REMARK  112  A    between atoms: _267  and  _268
REMARK  113  A    between atoms: _267  and  _270
REMARK  114  A    between atoms: _270  and  _271
REMARK  115  A    between atoms: _276  and  _277
REMARK  116  A    between atoms: _279  and  _281
REMARK  117  A    between atoms: _281  and  _282
REMARK  118  A    between atoms: _281  and  _284
REMARK  119  A    between atoms: _287  and  _289
REMARK  120  A    between atoms: _289  and  _290
REMARK  121  A    between atoms: _293  and  _295
REMARK  122  A    between atoms: _295  and  _296
REMARK  123  A    between atoms: _295  and  _298
REMARK  124  A    between atoms: _298  and  _299
REMARK  125  A    between atoms: _304  and  _305
REMARK  126  A    between atoms: _307  and  _309
REMARK  127  A    between atoms: _309  and  _310
REMARK  128  A    between atoms: _309  and  _312
REMARK  129  A    between atoms: _312  and  _313
REMARK  130  A    between atoms: ZN_323  and  _327
REMARK  131  A    between atoms: MG_324  and  _327
REMARK                            x       y       z     vdW  Elec       q    Type
REMARK                         _______ _______ _______ _____ _____    ______ ____
ROOT
ATOM      1  O   HOH     1       6.555   5.330  41.417  0.00  0.00    +0.000 OA
ENDROOT
TORSDOF 0
REMARK  Name = ../refined-set-2016/5c1w/5c1w_pocket.pdb
REMARK  131 active torsions:
REMARK  status: ('A' for Active; 'I' for Inactive)
REMARK    1  A    between atoms: _1  and  _3
REMARK    2  A    between atoms: _3  and  _4
REMARK    3  A    between atoms: _3  and  _6
REMARK    4  A    between atoms: _6  and  _7
REMARK    5  A    between atoms: _12  and  _13
REMARK    6  A    between atoms: _15  and  _17
REMARK    7  A    between atoms: _17  and  _18
REMARK    8  A    between atoms: _17  and  _20
REMARK    9  A    between atoms: _20  and  _21
REMARK   10  A    between atoms: _26  and  _28
REMARK   11  A    between atoms: _28  and  _29
REMARK   12  A    between atoms: _28  and  _31
REMARK   13  A    between atoms: _31  and  _32
REMARK   14  A    between atoms: _36  and  ZN_323
REMARK   15  A    between atoms: _37  and  _39
REMARK   16  A    between atoms: _39  and  _40
REMARK   17  A    between atoms: _39  and  _42
REMARK   18  A    between atoms: _42  and  _43
REMARK   19  A    between atoms: _46  and  _48
REMARK   20  A    between atoms: _48  and  _49
REMARK   21  A    between atoms: _48  and  _51
REMARK   22  A    between atoms: _51  and  _52
REMARK   23  A    between atoms: _55  and  _57
REMARK   24  A    between atoms: _57  and  _58
REMARK   25  A    between atoms: _57  and  _60
REMARK   26  A    between atoms: _60  and  _61
REMARK   27  A    between atoms: _64  and  _66
REMARK   28  A    between atoms: _66  and  _67
REMARK   29  A    between atoms: _66  and  _69
REMARK   30  A    between atoms: _71  and  _73
REMARK   31  A    between atoms: _73  and  _74
REMARK   32  A    between atoms: _73  and  _76
REMARK   33  A    between atoms: _76  and  _77
REMARK   34  A    between atoms: _77  and  _78
REMARK   35  A    between atoms: _78  and  ZN_323
REMARK   36  A    between atoms: _80  and  _82
REMARK   37  A    between atoms: _82  and  _83
REMARK   38  A    between atoms: _82  and  _85
REMARK   39  A    between atoms: _85  and  _86
REMARK   40  A    between atoms: _89  and  _91
REMARK   41  A    between atoms: _91  and  _92
REMARK   42  A    between atoms: _91  and  _94
REMARK   43  A    between atoms: _96  and  _98
REMARK   44  A    between atoms: _98  and  _99
REMARK   45  A    between atoms: _98  and  _101
REMARK   46  A    between atoms: _101  and  _102
REMARK   47  A    between atoms: _104  and  _106
REMARK   48  A    between atoms: _106  and  _107
REMARK   49  A    between atoms: _106  and  _109
REMARK   50  A    between atoms: _112  and  _114
REMARK   51  A    between atoms: _114  and  _115
REMARK   52  A    between atoms: _114  and  _117
REMARK   53  A    between atoms: _117  and  _118
REMARK   54  A    between atoms: _121  and  _123
REMARK   55  A    between atoms: _123  and  _124
REMARK   56  A    between atoms: _123  and  _126
REMARK   57  A    between atoms: _126  and  _127
REMARK   58  A    between atoms: _130  and  _132
REMARK   59  A    between atoms: _132  and  _133
REMARK   60  A    between atoms: _132  and  _135
REMARK   61  A    between atoms: _135  and  _136
REMARK   62  A    between atoms: _139  and  _141
REMARK   63  A    between atoms: _141  and  _142
REMARK   64  A    between atoms: _145  and  _147
REMARK   65  A    between atoms: _147  and  _148
REMARK   66  A    between atoms: _147  and  _150
REMARK   67  A    between atoms: _150  and  _151
REMARK   68  A    between atoms: _154  and  _156
REMARK   69  A    between atoms: _156  and  _157
REMARK   70  A    between atoms: _156  and  _159
REMARK   71  A    between atoms: _159  and  _160
REMARK   72  A    between atoms: _165  and  _166
REMARK   73  A    between atoms: _168  and  _170
REMARK   74  A    between atoms: _170  and  _171
REMARK   75  A    between atoms: _170  and  _173
REMARK   76  A    between atoms: _173  and  _174
REMARK   77  A    between atoms: _180  and  _182
REMARK   78  A    between atoms: _182  and  _183
REMARK   79  A    between atoms: _182  and  _185
REMARK   80  A    between atoms: _185  and  _186
REMARK   81  A    between atoms: _196  and  _198
REMARK   82  A    between atoms: _198  and  _199
REMARK   83  A    between atoms: _198  and  _201
REMARK   84  A    between atoms: _201  and  _202
REMARK   85  A    between atoms: _202  and  _203
REMARK   86  A    between atoms: _205  and  _207
REMARK   87  A    between atoms: _207  and  _208
REMARK   88  A    between atoms: _207  and  _210
REMARK   89  A    between atoms: _210  and  _211
REMARK   90  A    between atoms: _211  and  _212
REMARK   91  A    between atoms: _214  and  _216
REMARK   92  A    between atoms: _216  and  _217
REMARK   93  A    between atoms: _216  and  _219
REMARK   94  A    between atoms: _222  and  _224
REMARK   95  A    between atoms: _224  and  _225
REMARK   96  A    between atoms: _227  and  _229
REMARK   97  A    between atoms: _229  and  _230
REMARK   98  A    between atoms: _229  and  _232
REMARK   99  A    between atoms: _232  and  _233
REMARK  100  A    between atoms: _233  and  _234
REMARK  101  A    between atoms: _239  and  _241
REMARK  102  A    between atoms: _241  and  _242
REMARK  103  A    between atoms: _241  and  _244
REMARK  104  A    between atoms: _244  and  _245
REMARK  105  A    between atoms: _248  and  _250
REMARK  106  A    between atoms: _250  and  _251
REMARK  107  A    between atoms: _253  and  _255
REMARK  108  A    between atoms: _255  and  _256
REMARK  109  A    between atoms: _255  and  _258
REMARK  110  A    between atoms: _258  and  _259
REMARK  111  A    between atoms: _265  and  _267
REMARK  112  A    between atoms: _267  and  _268
REMARK  113  A    between atoms: _267  and  _270
REMARK  114  A    between atoms: _270  and  _271
REMARK  115  A    between atoms: _276  and  _277
REMARK  116  A    between atoms: _279  and  _281
REMARK  117  A    between atoms: _281  and  _282
REMARK  118  A    between atoms: _281  and  _284
REMARK  119  A    between atoms: _287  and  _289
REMARK  120  A    between atoms: _289  and  _290
REMARK  121  A    between atoms: _293  and  _295
REMARK  122  A    between atoms: _295  and  _296
REMARK  123  A    between atoms: _295  and  _298
REMARK  124  A    between atoms: _298  and  _299
REMARK  125  A    between atoms: _304  and  _305
REMARK  126  A    between atoms: _307  and  _309
REMARK  127  A    between atoms: _309  and  _310
REMARK  128  A    between atoms: _309  and  _312
REMARK  129  A    between atoms: _312  and  _313
REMARK  130  A    between atoms: ZN_323  and  _327
REMARK  131  A    between atoms: MG_324  and  _327
REMARK                            x       y       z     vdW  Elec       q    Type
REMARK                         _______ _______ _______ _____ _____    ______ ____
ROOT
ATOM      1  O   HOH     1       7.369  12.813  51.465  0.00  0.00    +0.000 OA
ENDROOT
TORSDOF 0
REMARK  Name = ../refined-set-2016/5c1w/5c1w_pocket.pdb
REMARK  131 active torsions:
REMARK  status: ('A' for Active; 'I' for Inactive)
REMARK    1  A    between atoms: _1  and  _3
REMARK    2  A    between atoms: _3  and  _4
REMARK    3  A    between atoms: _3  and  _6
REMARK    4  A    between atoms: _6  and  _7
REMARK    5  A    between atoms: _12  and  _13
REMARK    6  A    between atoms: _15  and  _17
REMARK    7  A    between atoms: _17  and  _18
REMARK    8  A    between atoms: _17  and  _20
REMARK    9  A    between atoms: _20  and  _21
REMARK   10  A    between atoms: _26  and  _28
REMARK   11  A    between atoms: _28  and  _29
REMARK   12  A    between atoms: _28  and  _31
REMARK   13  A    between atoms: _31  and  _32
REMARK   14  A    between atoms: _36  and  ZN_323
REMARK   15  A    between atoms: _37  and  _39
REMARK   16  A    between atoms: _39  and  _40
REMARK   17  A    between atoms: _39  and  _42
REMARK   18  A    between atoms: _42  and  _43
REMARK   19  A    between atoms: _46  and  _48
REMARK   20  A    between atoms: _48  and  _49
REMARK   21  A    between atoms: _48  and  _51
REMARK   22  A    between atoms: _51  and  _52
REMARK   23  A    between atoms: _55  and  _57
REMARK   24  A    between atoms: _57  and  _58
REMARK   25  A    between atoms: _57  and  _60
REMARK   26  A    between atoms: _60  and  _61
REMARK   27  A    between atoms: _64  and  _66
REMARK   28  A    between atoms: _66  and  _67
REMARK   29  A    between atoms: _66  and  _69
REMARK   30  A    between atoms: _71  and  _73
REMARK   31  A    between atoms: _73  and  _74
REMARK   32  A    between atoms: _73  and  _76
REMARK   33  A    between atoms: _76  and  _77
REMARK   34  A    between atoms: _77  and  _78
REMARK   35  A    between atoms: _78  and  ZN_323
REMARK   36  A    between atoms: _80  and  _82
REMARK   37  A    between atoms: _82  and  _83
REMARK   38  A    between atoms: _82  and  _85
REMARK   39  A    between atoms: _85  and  _86
REMARK   40  A    between atoms: _89  and  _91
REMARK   41  A    between atoms: _91  and  _92
REMARK   42  A    between atoms: _91  and  _94
REMARK   43  A    between atoms: _96  and  _98
REMARK   44  A    between atoms: _98  and  _99
REMARK   45  A    between atoms: _98  and  _101
REMARK   46  A    between atoms: _101  and  _102
REMARK   47  A    between atoms: _104  and  _106
REMARK   48  A    between atoms: _106  and  _107
REMARK   49  A    between atoms: _106  and  _109
REMARK   50  A    between atoms: _112  and  _114
REMARK   51  A    between atoms: _114  and  _115
REMARK   52  A    between atoms: _114  and  _117
REMARK   53  A    between atoms: _117  and  _118
REMARK   54  A    between atoms: _121  and  _123
REMARK   55  A    between atoms: _123  and  _124
REMARK   56  A    between atoms: _123  and  _126
REMARK   57  A    between atoms: _126  and  _127
REMARK   58  A    between atoms: _130  and  _132
REMARK   59  A    between atoms: _132  and  _133
REMARK   60  A    between atoms: _132  and  _135
REMARK   61  A    between atoms: _135  and  _136
REMARK   62  A    between atoms: _139  and  _141
REMARK   63  A    between atoms: _141  and  _142
REMARK   64  A    between atoms: _145  and  _147
REMARK   65  A    between atoms: _147  and  _148
REMARK   66  A    between atoms: _147  and  _150
REMARK   67  A    between atoms: _150  and  _151
REMARK   68  A    between atoms: _154  and  _156
REMARK   69  A    between atoms: _156  and  _157
REMARK   70  A    between atoms: _156  and  _159
REMARK   71  A    between atoms: _159  and  _160
REMARK   72  A    between atoms: _165  and  _166
REMARK   73  A    between atoms: _168  and  _170
REMARK   74  A    between atoms: _170  and  _171
REMARK   75  A    between atoms: _170  and  _173
REMARK   76  A    between atoms: _173  and  _174
REMARK   77  A    between atoms: _180  and  _182
REMARK   78  A    between atoms: _182  and  _183
REMARK   79  A    between atoms: _182  and  _185
REMARK   80  A    between atoms: _185  and  _186
REMARK   81  A    between atoms: _196  and  _198
REMARK   82  A    between atoms: _198  and  _199
REMARK   83  A    between atoms: _198  and  _201
REMARK   84  A    between atoms: _201  and  _202
REMARK   85  A    between atoms: _202  and  _203
REMARK   86  A    between atoms: _205  and  _207
REMARK   87  A    between atoms: _207  and  _208
REMARK   88  A    between atoms: _207  and  _210
REMARK   89  A    between atoms: _210  and  _211
REMARK   90  A    between atoms: _211  and  _212
REMARK   91  A    between atoms: _214  and  _216
REMARK   92  A    between atoms: _216  and  _217
REMARK   93  A    between atoms: _216  and  _219
REMARK   94  A    between atoms: _222  and  _224
REMARK   95  A    between atoms: _224  and  _225
REMARK   96  A    between atoms: _227  and  _229
REMARK   97  A    between atoms: _229  and  _230
REMARK   98  A    between atoms: _229  and  _232
REMARK   99  A    between atoms: _232  and  _233
REMARK  100  A    between atoms: _233  and  _234
REMARK  101  A    between atoms: _239  and  _241
REMARK  102  A    between atoms: _241  and  _242
REMARK  103  A    between atoms: _241  and  _244
REMARK  104  A    between atoms: _244  and  _245
REMARK  105  A    between atoms: _248  and  _250
REMARK  106  A    between atoms: _250  and  _251
REMARK  107  A    between atoms: _253  and  _255
REMARK  108  A    between atoms: _255  and  _256
REMARK  109  A    between atoms: _255  and  _258
REMARK  110  A    between atoms: _258  and  _259
REMARK  111  A    between atoms: _265  and  _267
REMARK  112  A    between atoms: _267  and  _268
REMARK  113  A    between atoms: _267  and  _270
REMARK  114  A    between atoms: _270  and  _271
REMARK  115  A    between atoms: _276  and  _277
REMARK  116  A    between atoms: _279  and  _281
REMARK  117  A    between atoms: _281  and  _282
REMARK  118  A    between atoms: _281  and  _284
REMARK  119  A    between atoms: _287  and  _289
REMARK  120  A    between atoms: _289  and  _290
REMARK  121  A    between atoms: _293  and  _295
REMARK  122  A    between atoms: _295  and  _296
REMARK  123  A    between atoms: _295  and  _298
REMARK  124  A    between atoms: _298  and  _299
REMARK  125  A    between atoms: _304  and  _305
REMARK  126  A    between atoms: _307  and  _309
REMARK  127  A    between atoms: _309  and  _310
REMARK  128  A    between atoms: _309  and  _312
REMARK  129  A    between atoms: _312  and  _313
REMARK  130  A    between atoms: ZN_323  and  _327
REMARK  131  A    between atoms: MG_324  and  _327
REMARK                            x       y       z     vdW  Elec       q    Type
REMARK                         _______ _______ _______ _____ _____    ______ ____
ROOT
ATOM      1  O   HOH     1       6.832   6.710  43.768  0.00  0.00    +0.000 OA
ENDROOT
TORSDOF 0
REMARK  Name = ../refined-set-2016/5c1w/5c1w_pocket.pdb
REMARK  131 active torsions:
REMARK  status: ('A' for Active; 'I' for Inactive)
REMARK    1  A    between atoms: _1  and  _3
REMARK    2  A    between atoms: _3  and  _4
REMARK    3  A    between atoms: _3  and  _6
REMARK    4  A    between atoms: _6  and  _7
REMARK    5  A    between atoms: _12  and  _13
REMARK    6  A    between atoms: _15  and  _17
REMARK    7  A    between atoms: _17  and  _18
REMARK    8  A    between atoms: _17  and  _20
REMARK    9  A    between atoms: _20  and  _21
REMARK   10  A    between atoms: _26  and  _28
REMARK   11  A    between atoms: _28  and  _29
REMARK   12  A    between atoms: _28  and  _31
REMARK   13  A    between atoms: _31  and  _32
REMARK   14  A    between atoms: _36  and  ZN_323
REMARK   15  A    between atoms: _37  and  _39
REMARK   16  A    between atoms: _39  and  _40
REMARK   17  A    between atoms: _39  and  _42
REMARK   18  A    between atoms: _42  and  _43
REMARK   19  A    between atoms: _46  and  _48
REMARK   20  A    between atoms: _48  and  _49
REMARK   21  A    between atoms: _48  and  _51
REMARK   22  A    between atoms: _51  and  _52
REMARK   23  A    between atoms: _55  and  _57
REMARK   24  A    between atoms: _57  and  _58
REMARK   25  A    between atoms: _57  and  _60
REMARK   26  A    between atoms: _60  and  _61
REMARK   27  A    between atoms: _64  and  _66
REMARK   28  A    between atoms: _66  and  _67
REMARK   29  A    between atoms: _66  and  _69
REMARK   30  A    between atoms: _71  and  _73
REMARK   31  A    between atoms: _73  and  _74
REMARK   32  A    between atoms: _73  and  _76
REMARK   33  A    between atoms: _76  and  _77
REMARK   34  A    between atoms: _77  and  _78
REMARK   35  A    between atoms: _78  and  ZN_323
REMARK   36  A    between atoms: _80  and  _82
REMARK   37  A    between atoms: _82  and  _83
REMARK   38  A    between atoms: _82  and  _85
REMARK   39  A    between atoms: _85  and  _86
REMARK   40  A    between atoms: _89  and  _91
REMARK   41  A    between atoms: _91  and  _92
REMARK   42  A    between atoms: _91  and  _94
REMARK   43  A    between atoms: _96  and  _98
REMARK   44  A    between atoms: _98  and  _99
REMARK   45  A    between atoms: _98  and  _101
REMARK   46  A    between atoms: _101  and  _102
REMARK   47  A    between atoms: _104  and  _106
REMARK   48  A    between atoms: _106  and  _107
REMARK   49  A    between atoms: _106  and  _109
REMARK   50  A    between atoms: _112  and  _114
REMARK   51  A    between atoms: _114  and  _115
REMARK   52  A    between atoms: _114  and  _117
REMARK   53  A    between atoms: _117  and  _118
REMARK   54  A    between atoms: _121  and  _123
REMARK   55  A    between atoms: _123  and  _124
REMARK   56  A    between atoms: _123  and  _126
REMARK   57  A    between atoms: _126  and  _127
REMARK   58  A    between atoms: _130  and  _132
REMARK   59  A    between atoms: _132  and  _133
REMARK   60  A    between atoms: _132  and  _135
REMARK   61  A    between atoms: _135  and  _136
REMARK   62  A    between atoms: _139  and  _141
REMARK   63  A    between atoms: _141  and  _142
REMARK   64  A    between atoms: _145  and  _147
REMARK   65  A    between atoms: _147  and  _148
REMARK   66  A    between atoms: _147  and  _150
REMARK   67  A    between atoms: _150  and  _151
REMARK   68  A    between atoms: _154  and  _156
REMARK   69  A    between atoms: _156  and  _157
REMARK   70  A    between atoms: _156  and  _159
REMARK   71  A    between atoms: _159  and  _160
REMARK   72  A    between atoms: _165  and  _166
REMARK   73  A    between atoms: _168  and  _170
REMARK   74  A    between atoms: _170  and  _171
REMARK   75  A    between atoms: _170  and  _173
REMARK   76  A    between atoms: _173  and  _174
REMARK   77  A    between atoms: _180  and  _182
REMARK   78  A    between atoms: _182  and  _183
REMARK   79  A    between atoms: _182  and  _185
REMARK   80  A    between atoms: _185  and  _186
REMARK   81  A    between atoms: _196  and  _198
REMARK   82  A    between atoms: _198  and  _199
REMARK   83  A    between atoms: _198  and  _201
REMARK   84  A    between atoms: _201  and  _202
REMARK   85  A    between atoms: _202  and  _203
REMARK   86  A    between atoms: _205  and  _207
REMARK   87  A    between atoms: _207  and  _208
REMARK   88  A    between atoms: _207  and  _210
REMARK   89  A    between atoms: _210  and  _211
REMARK   90  A    between atoms: _211  and  _212
REMARK   91  A    between atoms: _214  and  _216
REMARK   92  A    between atoms: _216  and  _217
REMARK   93  A    between atoms: _216  and  _219
REMARK   94  A    between atoms: _222  and  _224
REMARK   95  A    between atoms: _224  and  _225
REMARK   96  A    between atoms: _227  and  _229
REMARK   97  A    between atoms: _229  and  _230
REMARK   98  A    between atoms: _229  and  _232
REMARK   99  A    between atoms: _232  and  _233
REMARK  100  A    between atoms: _233  and  _234
REMARK  101  A    between atoms: _239  and  _241
REMARK  102  A    between atoms: _241  and  _242
REMARK  103  A    between atoms: _241  and  _244
REMARK  104  A    between atoms: _244  and  _245
REMARK  105  A    between atoms: _248  and  _250
REMARK  106  A    between atoms: _250  and  _251
REMARK  107  A    between atoms: _253  and  _255
REMARK  108  A    between atoms: _255  and  _256
REMARK  109  A    between atoms: _255  and  _258
REMARK  110  A    between atoms: _258  and  _259
REMARK  111  A    between atoms: _265  and  _267
REMARK  112  A    between atoms: _267  and  _268
REMARK  113  A    between atoms: _267  and  _270
REMARK  114  A    between atoms: _270  and  _271
REMARK  115  A    between atoms: _276  and  _277
REMARK  116  A    between atoms: _279  and  _281
REMARK  117  A    between atoms: _281  and  _282
REMARK  118  A    between atoms: _281  and  _284
REMARK  119  A    between atoms: _287  and  _289
REMARK  120  A    between atoms: _289  and  _290
REMARK  121  A    between atoms: _293  and  _295
REMARK  122  A    between atoms: _295  and  _296
REMARK  123  A    between atoms: _295  and  _298
REMARK  124  A    between atoms: _298  and  _299
REMARK  125  A    between atoms: _304  and  _305
REMARK  126  A    between atoms: _307  and  _309
REMARK  127  A    between atoms: _309  and  _310
REMARK  128  A    between atoms: _309  and  _312
REMARK  129  A    between atoms: _312  and  _313
REMARK  130  A    between atoms: ZN_323  and  _327
REMARK  131  A    between atoms: MG_324  and  _327
REMARK                            x       y       z     vdW  Elec       q    Type
REMARK                         _______ _______ _______ _____ _____    ______ ____
ROOT
ATOM      1  O   HOH     1       3.828  19.988  35.014  0.00  0.00    +0.000 OA
ENDROOT
TORSDOF 0
REMARK  Name = ../refined-set-2016/5c1w/5c1w_pocket.pdb
REMARK  131 active torsions:
REMARK  status: ('A' for Active; 'I' for Inactive)
REMARK    1  A    between atoms: _1  and  _3
REMARK    2  A    between atoms: _3  and  _4
REMARK    3  A    between atoms: _3  and  _6
REMARK    4  A    between atoms: _6  and  _7
REMARK    5  A    between atoms: _12  and  _13
REMARK    6  A    between atoms: _15  and  _17
REMARK    7  A    between atoms: _17  and  _18
REMARK    8  A    between atoms: _17  and  _20
REMARK    9  A    between atoms: _20  and  _21
REMARK   10  A    between atoms: _26  and  _28
REMARK   11  A    between atoms: _28  and  _29
REMARK   12  A    between atoms: _28  and  _31
REMARK   13  A    between atoms: _31  and  _32
REMARK   14  A    between atoms: _36  and  ZN_323
REMARK   15  A    between atoms: _37  and  _39
REMARK   16  A    between atoms: _39  and  _40
REMARK   17  A    between atoms: _39  and  _42
REMARK   18  A    between atoms: _42  and  _43
REMARK   19  A    between atoms: _46  and  _48
REMARK   20  A    between atoms: _48  and  _49
REMARK   21  A    between atoms: _48  and  _51
REMARK   22  A    between atoms: _51  and  _52
REMARK   23  A    between atoms: _55  and  _57
REMARK   24  A    between atoms: _57  and  _58
REMARK   25  A    between atoms: _57  and  _60
REMARK   26  A    between atoms: _60  and  _61
REMARK   27  A    between atoms: _64  and  _66
REMARK   28  A    between atoms: _66  and  _67
REMARK   29  A    between atoms: _66  and  _69
REMARK   30  A    between atoms: _71  and  _73
REMARK   31  A    between atoms: _73  and  _74
REMARK   32  A    between atoms: _73  and  _76
REMARK   33  A    between atoms: _76  and  _77
REMARK   34  A    between atoms: _77  and  _78
REMARK   35  A    between atoms: _78  and  ZN_323
REMARK   36  A    between atoms: _80  and  _82
REMARK   37  A    between atoms: _82  and  _83
REMARK   38  A    between atoms: _82  and  _85
REMARK   39  A    between atoms: _85  and  _86
REMARK   40  A    between atoms: _89  and  _91
REMARK   41  A    between atoms: _91  and  _92
REMARK   42  A    between atoms: _91  and  _94
REMARK   43  A    between atoms: _96  and  _98
REMARK   44  A    between atoms: _98  and  _99
REMARK   45  A    between atoms: _98  and  _101
REMARK   46  A    between atoms: _101  and  _102
REMARK   47  A    between atoms: _104  and  _106
REMARK   48  A    between atoms: _106  and  _107
REMARK   49  A    between atoms: _106  and  _109
REMARK   50  A    between atoms: _112  and  _114
REMARK   51  A    between atoms: _114  and  _115
REMARK   52  A    between atoms: _114  and  _117
REMARK   53  A    between atoms: _117  and  _118
REMARK   54  A    between atoms: _121  and  _123
REMARK   55  A    between atoms: _123  and  _124
REMARK   56  A    between atoms: _123  and  _126
REMARK   57  A    between atoms: _126  and  _127
REMARK   58  A    between atoms: _130  and  _132
REMARK   59  A    between atoms: _132  and  _133
REMARK   60  A    between atoms: _132  and  _135
REMARK   61  A    between atoms: _135  and  _136
REMARK   62  A    between atoms: _139  and  _141
REMARK   63  A    between atoms: _141  and  _142
REMARK   64  A    between atoms: _145  and  _147
REMARK   65  A    between atoms: _147  and  _148
REMARK   66  A    between atoms: _147  and  _150
REMARK   67  A    between atoms: _150  and  _151
REMARK   68  A    between atoms: _154  and  _156
REMARK   69  A    between atoms: _156  and  _157
REMARK   70  A    between atoms: _156  and  _159
REMARK   71  A    between atoms: _159  and  _160
REMARK   72  A    between atoms: _165  and  _166
REMARK   73  A    between atoms: _168  and  _170
REMARK   74  A    between atoms: _170  and  _171
REMARK   75  A    between atoms: _170  and  _173
REMARK   76  A    between atoms: _173  and  _174
REMARK   77  A    between atoms: _180  and  _182
REMARK   78  A    between atoms: _182  and  _183
REMARK   79  A    between atoms: _182  and  _185
REMARK   80  A    between atoms: _185  and  _186
REMARK   81  A    between atoms: _196  and  _198
REMARK   82  A    between atoms: _198  and  _199
REMARK   83  A    between atoms: _198  and  _201
REMARK   84  A    between atoms: _201  and  _202
REMARK   85  A    between atoms: _202  and  _203
REMARK   86  A    between atoms: _205  and  _207
REMARK   87  A    between atoms: _207  and  _208
REMARK   88  A    between atoms: _207  and  _210
REMARK   89  A    between atoms: _210  and  _211
REMARK   90  A    between atoms: _211  and  _212
REMARK   91  A    between atoms: _214  and  _216
REMARK   92  A    between atoms: _216  and  _217
REMARK   93  A    between atoms: _216  and  _219
REMARK   94  A    between atoms: _222  and  _224
REMARK   95  A    between atoms: _224  and  _225
REMARK   96  A    between atoms: _227  and  _229
REMARK   97  A    between atoms: _229  and  _230
REMARK   98  A    between atoms: _229  and  _232
REMARK   99  A    between atoms: _232  and  _233
REMARK  100  A    between atoms: _233  and  _234
REMARK  101  A    between atoms: _239  and  _241
REMARK  102  A    between atoms: _241  and  _242
REMARK  103  A    between atoms: _241  and  _244
REMARK  104  A    between atoms: _244  and  _245
REMARK  105  A    between atoms: _248  and  _250
REMARK  106  A    between atoms: _250  and  _251
REMARK  107  A    between atoms: _253  and  _255
REMARK  108  A    between atoms: _255  and  _256
REMARK  109  A    between atoms: _255  and  _258
REMARK  110  A    between atoms: _258  and  _259
REMARK  111  A    between atoms: _265  and  _267
REMARK  112  A    between atoms: _267  and  _268
REMARK  113  A    between atoms: _267  and  _270
REMARK  114  A    between atoms: _270  and  _271
REMARK  115  A    between atoms: _276  and  _277
REMARK  116  A    between atoms: _279  and  _281
REMARK  117  A    between atoms: _281  and  _282
REMARK  118  A    between atoms: _281  and  _284
REMARK  119  A    between atoms: _287  and  _289
REMARK  120  A    between atoms: _289  and  _290
REMARK  121  A    between atoms: _293  and  _295
REMARK  122  A    between atoms: _295  and  _296
REMARK  123  A    between atoms: _295  and  _298
REMARK  124  A    between atoms: _298  and  _299
REMARK  125  A    between atoms: _304  and  _305
REMARK  126  A    between atoms: _307  and  _309
REMARK  127  A    between atoms: _309  and  _310
REMARK  128  A    between atoms: _309  and  _312
REMARK  129  A    between atoms: _312  and  _313
REMARK  130  A    between atoms: ZN_323  and  _327
REMARK  131  A    between atoms: MG_324  and  _327
REMARK                            x       y       z     vdW  Elec       q    Type
REMARK                         _______ _______ _______ _____ _____    ______ ____
ROOT
ATOM      1  O   HOH     1       8.352  11.758  43.127  0.00  0.00    +0.000 OA
ENDROOT
TORSDOF 0
REMARK  Name = ../refined-set-2016/5c1w/5c1w_pocket.pdb
REMARK  131 active torsions:
REMARK  status: ('A' for Active; 'I' for Inactive)
REMARK    1  A    between atoms: _1  and  _3
REMARK    2  A    between atoms: _3  and  _4
REMARK    3  A    between atoms: _3  and  _6
REMARK    4  A    between atoms: _6  and  _7
REMARK    5  A    between atoms: _12  and  _13
REMARK    6  A    between atoms: _15  and  _17
REMARK    7  A    between atoms: _17  and  _18
REMARK    8  A    between atoms: _17  and  _20
REMARK    9  A    between atoms: _20  and  _21
REMARK   10  A    between atoms: _26  and  _28
REMARK   11  A    between atoms: _28  and  _29
REMARK   12  A    between atoms: _28  and  _31
REMARK   13  A    between atoms: _31  and  _32
REMARK   14  A    between atoms: _36  and  ZN_323
REMARK   15  A    between atoms: _37  and  _39
REMARK   16  A    between atoms: _39  and  _40
REMARK   17  A    between atoms: _39  and  _42
REMARK   18  A    between atoms: _42  and  _43
REMARK   19  A    between atoms: _46  and  _48
REMARK   20  A    between atoms: _48  and  _49
REMARK   21  A    between atoms: _48  and  _51
REMARK   22  A    between atoms: _51  and  _52
REMARK   23  A    between atoms: _55  and  _57
REMARK   24  A    between atoms: _57  and  _58
REMARK   25  A    between atoms: _57  and  _60
REMARK   26  A    between atoms: _60  and  _61
REMARK   27  A    between atoms: _64  and  _66
REMARK   28  A    between atoms: _66  and  _67
REMARK   29  A    between atoms: _66  and  _69
REMARK   30  A    between atoms: _71  and  _73
REMARK   31  A    between atoms: _73  and  _74
REMARK   32  A    between atoms: _73  and  _76
REMARK   33  A    between atoms: _76  and  _77
REMARK   34  A    between atoms: _77  and  _78
REMARK   35  A    between atoms: _78  and  ZN_323
REMARK   36  A    between atoms: _80  and  _82
REMARK   37  A    between atoms: _82  and  _83
REMARK   38  A    between atoms: _82  and  _85
REMARK   39  A    between atoms: _85  and  _86
REMARK   40  A    between atoms: _89  and  _91
REMARK   41  A    between atoms: _91  and  _92
REMARK   42  A    between atoms: _91  and  _94
REMARK   43  A    between atoms: _96  and  _98
REMARK   44  A    between atoms: _98  and  _99
REMARK   45  A    between atoms: _98  and  _101
REMARK   46  A    between atoms: _101  and  _102
REMARK   47  A    between atoms: _104  and  _106
REMARK   48  A    between atoms: _106  and  _107
REMARK   49  A    between atoms: _106  and  _109
REMARK   50  A    between atoms: _112  and  _114
REMARK   51  A    between atoms: _114  and  _115
REMARK   52  A    between atoms: _114  and  _117
REMARK   53  A    between atoms: _117  and  _118
REMARK   54  A    between atoms: _121  and  _123
REMARK   55  A    between atoms: _123  and  _124
REMARK   56  A    between atoms: _123  and  _126
REMARK   57  A    between atoms: _126  and  _127
REMARK   58  A    between atoms: _130  and  _132
REMARK   59  A    between atoms: _132  and  _133
REMARK   60  A    between atoms: _132  and  _135
REMARK   61  A    between atoms: _135  and  _136
REMARK   62  A    between atoms: _139  and  _141
REMARK   63  A    between atoms: _141  and  _142
REMARK   64  A    between atoms: _145  and  _147
REMARK   65  A    between atoms: _147  and  _148
REMARK   66  A    between atoms: _147  and  _150
REMARK   67  A    between atoms: _150  and  _151
REMARK   68  A    between atoms: _154  and  _156
REMARK   69  A    between atoms: _156  and  _157
REMARK   70  A    between atoms: _156  and  _159
REMARK   71  A    between atoms: _159  and  _160
REMARK   72  A    between atoms: _165  and  _166
REMARK   73  A    between atoms: _168  and  _170
REMARK   74  A    between atoms: _170  and  _171
REMARK   75  A    between atoms: _170  and  _173
REMARK   76  A    between atoms: _173  and  _174
REMARK   77  A    between atoms: _180  and  _182
REMARK   78  A    between atoms: _182  and  _183
REMARK   79  A    between atoms: _182  and  _185
REMARK   80  A    between atoms: _185  and  _186
REMARK   81  A    between atoms: _196  and  _198
REMARK   82  A    between atoms: _198  and  _199
REMARK   83  A    between atoms: _198  and  _201
REMARK   84  A    between atoms: _201  and  _202
REMARK   85  A    between atoms: _202  and  _203
REMARK   86  A    between atoms: _205  and  _207
REMARK   87  A    between atoms: _207  and  _208
REMARK   88  A    between atoms: _207  and  _210
REMARK   89  A    between atoms: _210  and  _211
REMARK   90  A    between atoms: _211  and  _212
REMARK   91  A    between atoms: _214  and  _216
REMARK   92  A    between atoms: _216  and  _217
REMARK   93  A    between atoms: _216  and  _219
REMARK   94  A    between atoms: _222  and  _224
REMARK   95  A    between atoms: _224  and  _225
REMARK   96  A    between atoms: _227  and  _229
REMARK   97  A    between atoms: _229  and  _230
REMARK   98  A    between atoms: _229  and  _232
REMARK   99  A    between atoms: _232  and  _233
REMARK  100  A    between atoms: _233  and  _234
REMARK  101  A    between atoms: _239  and  _241
REMARK  102  A    between atoms: _241  and  _242
REMARK  103  A    between atoms: _241  and  _244
REMARK  104  A    between atoms: _244  and  _245
REMARK  105  A    between atoms: _248  and  _250
REMARK  106  A    between atoms: _250  and  _251
REMARK  107  A    between atoms: _253  and  _255
REMARK  108  A    between atoms: _255  and  _256
REMARK  109  A    between atoms: _255  and  _258
REMARK  110  A    between atoms: _258  and  _259
REMARK  111  A    between atoms: _265  and  _267
REMARK  112  A    between atoms: _267  and  _268
REMARK  113  A    between atoms: _267  and  _270
REMARK  114  A    between atoms: _270  and  _271
REMARK  115  A    between atoms: _276  and  _277
REMARK  116  A    between atoms: _279  and  _281
REMARK  117  A    between atoms: _281  and  _282
REMARK  118  A    between atoms: _281  and  _284
REMARK  119  A    between atoms: _287  and  _289
REMARK  120  A    between atoms: _289  and  _290
REMARK  121  A    between atoms: _293  and  _295
REMARK  122  A    between atoms: _295  and  _296
REMARK  123  A    between atoms: _295  and  _298
REMARK  124  A    between atoms: _298  and  _299
REMARK  125  A    between atoms: _304  and  _305
REMARK  126  A    between atoms: _307  and  _309
REMARK  127  A    between atoms: _309  and  _310
REMARK  128  A    between atoms: _309  and  _312
REMARK  129  A    between atoms: _312  and  _313
REMARK  130  A    between atoms: ZN_323  and  _327
REMARK  131  A    between atoms: MG_324  and  _327
REMARK                            x       y       z     vdW  Elec       q    Type
REMARK                         _______ _______ _______ _____ _____    ______ ____
ROOT
ATOM      1  O   HOH     1      10.840   9.323  40.419  0.00  0.00    +0.000 OA
ENDROOT
TORSDOF 0
