REMARK  Name = ../refined-set-2016/4dsu/4dsu_pocket.pdb
REMARK  131 active torsions:
REMARK  status: ('A' for Active; 'I' for Inactive)
REMARK    1  A    between atoms: _1  and  _3
REMARK    2  A    between atoms: _3  and  _4
REMARK    3  A    between atoms: _3  and  _6
REMARK    4  A    between atoms: _6  and  _7
REMARK    5  A    between atoms: _7  and  _8
REMARK    6  A    between atoms: _11  and  _13
REMARK    7  A    between atoms: _13  and  _14
REMARK    8  A    between atoms: _13  and  _16
REMARK    9  A    between atoms: _16  and  _17
REMARK   10  A    between atoms: _22  and  _23
REMARK   11  A    between atoms: _25  and  _27
REMARK   12  A    between atoms: _27  and  _28
REMARK   13  A    between atoms: _27  and  _30
REMARK   14  A    between atoms: _30  and  _31
REMARK   15  A    between atoms: _31  and  _32
REMARK   16  A    between atoms: _32  and  _33
REMARK   17  A    between atoms: _33  and  _34
REMARK   18  A    between atoms: _38  and  _40
REMARK   19  A    between atoms: _40  and  _41
REMARK   20  A    between atoms: _40  and  _43
REMARK   21  A    between atoms: _43  and  _44
REMARK   22  A    between atoms: _47  and  _49
REMARK   23  A    between atoms: _49  and  _50
REMARK   24  A    between atoms: _49  and  _52
REMARK   25  A    between atoms: _55  and  _57
REMARK   26  A    between atoms: _57  and  _58
REMARK   27  A    between atoms: _57  and  _60
REMARK   28  A    between atoms: _63  and  _65
REMARK   29  A    between atoms: _65  and  _66
REMARK   30  A    between atoms: _65  and  _68
REMARK   31  A    between atoms: _68  and  _69
REMARK   32  A    between atoms: _69  and  _70
REMARK   33  A    between atoms: _73  and  _75
REMARK   34  A    between atoms: _75  and  _76
REMARK   35  A    between atoms: _75  and  _78
REMARK   36  A    between atoms: _78  and  _79
REMARK   37  A    between atoms: _82  and  _84
REMARK   38  A    between atoms: _84  and  _85
REMARK   39  A    between atoms: _84  and  _87
REMARK   40  A    between atoms: _87  and  _88
REMARK   41  A    between atoms: _90  and  _92
REMARK   42  A    between atoms: _92  and  _93
REMARK   43  A    between atoms: _92  and  _95
REMARK   44  A    between atoms: _95  and  _96
REMARK   45  A    between atoms: _101  and  _102
REMARK   46  A    between atoms: _104  and  _106
REMARK   47  A    between atoms: _106  and  _107
REMARK   48  A    between atoms: _106  and  _109
REMARK   49  A    between atoms: _109  and  _110
REMARK   50  A    between atoms: _110  and  _111
REMARK   51  A    between atoms: _111  and  _112
REMARK   52  A    between atoms: _121  and  _123
REMARK   53  A    between atoms: _123  and  _124
REMARK   54  A    between atoms: _123  and  _126
REMARK   55  A    between atoms: _126  and  _127
REMARK   56  A    between atoms: _130  and  _132
REMARK   57  A    between atoms: _132  and  _133
REMARK   58  A    between atoms: _132  and  _135
REMARK   59  A    between atoms: _135  and  _136
REMARK   60  A    between atoms: _139  and  _141
REMARK   61  A    between atoms: _141  and  _142
REMARK   62  A    between atoms: _141  and  _144
REMARK   63  A    between atoms: _144  and  _145
REMARK   64  A    between atoms: _148  and  _150
REMARK   65  A    between atoms: _150  and  _151
REMARK   66  A    between atoms: _150  and  _153
REMARK   67  A    between atoms: _153  and  _154
REMARK   68  A    between atoms: _157  and  _159
REMARK   69  A    between atoms: _159  and  _160
REMARK   70  A    between atoms: _159  and  _162
REMARK   71  A    between atoms: _162  and  _163
REMARK   72  A    between atoms: _166  and  _168
REMARK   73  A    between atoms: _168  and  _169
REMARK   74  A    between atoms: _168  and  _171
REMARK   75  A    between atoms: _171  and  _172
REMARK   76  A    between atoms: _175  and  _177
REMARK   77  A    between atoms: _177  and  _178
REMARK   78  A    between atoms: _177  and  _180
REMARK   79  A    between atoms: _180  and  _181
REMARK   80  A    between atoms: _181  and  _182
REMARK   81  A    between atoms: _184  and  _186
REMARK   82  A    between atoms: _186  and  _187
REMARK   83  A    between atoms: _186  and  _189
REMARK   84  A    between atoms: _189  and  _190
REMARK   85  A    between atoms: _190  and  _191
REMARK   86  A    between atoms: _191  and  _192
REMARK   87  A    between atoms: _201  and  _203
REMARK   88  A    between atoms: _203  and  _204
REMARK   89  A    between atoms: _203  and  _206
REMARK   90  A    between atoms: _206  and  _207
REMARK   91  A    between atoms: _207  and  _208
REMARK   92  A    between atoms: _213  and  _215
REMARK   93  A    between atoms: _215  and  _216
REMARK   94  A    between atoms: _215  and  _218
REMARK   95  A    between atoms: _218  and  _219
REMARK   96  A    between atoms: _224  and  _225
REMARK   97  A    between atoms: _227  and  _229
REMARK   98  A    between atoms: _229  and  _230
REMARK   99  A    between atoms: _229  and  _232
REMARK  100  A    between atoms: _232  and  _233
REMARK  101  A    between atoms: _233  and  _234
REMARK  102  A    between atoms: _236  and  _238
REMARK  103  A    between atoms: _238  and  _239
REMARK  104  A    between atoms: _238  and  _241
REMARK  105  A    between atoms: _241  and  _242
REMARK  106  A    between atoms: _242  and  _243
REMARK  107  A    between atoms: _243  and  _244
REMARK  108  A    between atoms: _253  and  _255
REMARK  109  A    between atoms: _255  and  _256
REMARK  110  A    between atoms: _255  and  _258
REMARK  111  A    between atoms: _258  and  _259
REMARK  112  A    between atoms: _262  and  _264
REMARK  113  A    between atoms: _264  and  _265
REMARK  114  A    between atoms: _267  and  _269
REMARK  115  A    between atoms: _269  and  _270
REMARK  116  A    between atoms: _269  and  _272
REMARK  117  A    between atoms: _272  and  _273
REMARK  118  A    between atoms: _273  and  _274
REMARK  119  A    between atoms: _277  and  _279
REMARK  120  A    between atoms: _279  and  _280
REMARK  121  A    between atoms: _282  and  _284
REMARK  122  A    between atoms: _284  and  _285
REMARK  123  A    between atoms: _284  and  _287
REMARK  124  A    between atoms: _287  and  _288
REMARK  125  A    between atoms: _294  and  _296
REMARK  126  A    between atoms: _296  and  _297
REMARK  127  A    between atoms: _296  and  _299
REMARK  128  A    between atoms: _299  and  _300
REMARK  129  A    between atoms: _300  and  _301
REMARK  130  A    between atoms: _301  and  _302
REMARK  131  A    between atoms: _302  and  _303
REMARK                            x       y       z     vdW  Elec       q    Type
REMARK                         _______ _______ _______ _____ _____    ______ ____
ROOT
ATOM      1  CA  LYS A   3      25.791  16.144   5.876  0.00  0.00    +0.149 C 
ENDROOT
BRANCH   1   3
ATOM      2  C   TYR A   2      27.784  16.150   4.448  0.00  0.00    +0.241 C 
ATOM      3  N   LYS A   3      26.761  16.798   5.001  0.00  0.00    -0.297 N 
ATOM      4  H   LYS A   3      26.648  17.812   4.802  0.00  0.00    +0.150 HD
ATOM      5  O   TYR A   2      28.042  14.969   4.685  0.00  0.00    -0.273 OA
BRANCH   2   6
ATOM      6  CA  TYR A   2      28.660  16.957   3.498  0.00  0.00    +0.153 C 
BRANCH   6   8
ATOM      7  C   GLU A   1      30.711  18.134   4.078  0.00  0.00    +0.238 C 
ATOM      8  N   TYR A   2      30.036  16.993   3.983  0.00  0.00    -0.297 N 
ATOM      9  H   TYR A   2      30.500  16.104   4.261  0.00  0.00    +0.150 HD
ATOM     10  O   GLU A   1      30.247  19.217   3.729  0.00  0.00    -0.274 OA
BRANCH   7  11
ATOM     11  CA  GLU A   1      32.126  18.035   4.652  0.00  0.00    +0.145 C 
BRANCH  11  12
ATOM     12  N   GLU A   1      33.044  18.955   3.994  0.00  0.00    -0.238 NA
ATOM     13  H   GLU A   1      33.110  19.937   4.329  0.00  0.00    +0.142 HD
ENDBRANCH  11  12
BRANCH  11  14
ATOM     14  CB  GLU A   1      32.100  18.303   6.153  0.00  0.00    +0.038 C 
BRANCH  14  15
ATOM     15  CG  GLU A   1      31.147  17.419   6.925  0.00  0.00    +0.116 C 
BRANCH  15  16
ATOM     16  CD  GLU A   1      31.325  17.563   8.420  0.00  0.00    +0.365 C 
ATOM     17  OE2 GLU A   1      30.315  17.492   9.149  0.00  0.00    -0.246 OA
ATOM     18  OE1 GLU A   1      32.479  17.752   8.863  0.00  0.00    -0.246 OA
ENDBRANCH  15  16
ENDBRANCH  14  15
ENDBRANCH  11  14
ENDBRANCH   7  11
ENDBRANCH   6   8
BRANCH   6  19
ATOM     19  CB  TYR A   2      28.607  16.355   2.089  0.00  0.00    +0.055 C 
BRANCH  19  20
ATOM     20  CG  TYR A   2      29.352  17.155   1.040  0.00  0.00    -0.020 A 
ATOM     21  CD2 TYR A   2      30.713  16.960   0.816  0.00  0.00    -0.001 A 
ATOM     22  CE2 TYR A   2      31.391  17.693  -0.144  0.00  0.00    +0.036 A 
ATOM     23  CZ  TYR A   2      30.710  18.634  -0.891  0.00  0.00    +0.134 A 
ATOM     24  CE1 TYR A   2      29.366  18.846  -0.684  0.00  0.00    +0.036 A 
ATOM     25  CD1 TYR A   2      28.696  18.108   0.273  0.00  0.00    -0.001 A 
BRANCH  23  26
ATOM     26  OH  TYR A   2      31.371  19.367  -1.849  0.00  0.00    -0.506 OA
ATOM     27  HH  TYR A   2      31.752  18.754  -2.527  0.00  0.00    +0.292 HD
ENDBRANCH  23  26
ENDBRANCH  19  20
ENDBRANCH   6  19
ENDBRANCH   2   6
ENDBRANCH   1   3
BRANCH   1  28
ATOM     28  C   LYS A   3      24.689  15.553   5.031  0.00  0.00    +0.241 C 
ATOM     29  N   LEU A   4      24.624  14.226   4.963  0.00  0.00    -0.297 N 
ATOM     30  H   LEU A   4      25.316  13.654   5.489  0.00  0.00    +0.150 HD
ATOM     31  O   LYS A   3      23.898  16.298   4.462  0.00  0.00    -0.273 OA
BRANCH  29  32
ATOM     32  CA  LEU A   4      23.603  13.557   4.167  0.00  0.00    +0.149 C 
BRANCH  32  33
ATOM     33  C   LEU A   4      22.624  12.809   5.059  0.00  0.00    +0.241 C 
ATOM     34  O   LEU A   4      23.015  12.201   6.063  0.00  0.00    -0.273 OA
ATOM     35  N   VAL A   5      21.353  12.835   4.677  0.00  0.00    -0.297 N 
ATOM     36  H   VAL A   5      21.085  13.377   3.831  0.00  0.00    +0.150 HD
BRANCH  35  37
ATOM     37  CA  VAL A   5      20.327  12.119   5.420  0.00  0.00    +0.149 C 
BRANCH  37  38
ATOM     38  C   VAL A   5      19.604  11.162   4.489  0.00  0.00    +0.241 C 
ATOM     39  N   VAL A   6      19.583   9.883   4.858  0.00  0.00    -0.298 N 
ATOM     40  H   VAL A   6      20.079   9.601   5.727  0.00  0.00    +0.150 HD
ATOM     41  O   VAL A   5      19.097  11.575   3.447  0.00  0.00    -0.273 OA
BRANCH  39  42
ATOM     42  CA  VAL A   6      18.886   8.865   4.081  0.00  0.00    +0.137 C 
BRANCH  42  43
ATOM     43  CB  VAL A   6      19.632   7.508   4.102  0.00  0.00    +0.026 C 
ATOM     44  CG2 VAL A   6      21.102   7.683   3.697  0.00  0.00    +0.002 C 
ATOM     45  CG1 VAL A   6      18.934   6.506   3.170  0.00  0.00    +0.002 C 
ENDBRANCH  42  43
BRANCH  42  46
ATOM     46  C   VAL A   6      17.489   8.696   4.673  0.00  0.00    +0.227 C 
ATOM     47  O   VAL A   6      17.344   8.304   5.836  0.00  0.00    -0.286 OA
ENDBRANCH  42  46
ENDBRANCH  39  42
ENDBRANCH  37  38
BRANCH  37  48
ATOM     48  CB  VAL A   5      19.317  13.091   6.044  0.00  0.00    +0.027 C 
ATOM     49  CG2 VAL A   5      20.048  14.097   6.931  0.00  0.00    +0.002 C 
ATOM     50  CG1 VAL A   5      18.262  12.329   6.830  0.00  0.00    +0.002 C 
ENDBRANCH  37  48
ENDBRANCH  35  37
ENDBRANCH  32  33
BRANCH  32  51
ATOM     51  CB  LEU A   4      24.240  12.562   3.196  0.00  0.00    +0.029 C 
BRANCH  51  52
ATOM     52  CG  LEU A   4      25.435  13.072   2.405  0.00  0.00    +0.002 C 
ATOM     53  CD2 LEU A   4      25.063  14.338   1.664  0.00  0.00    +0.000 C 
ATOM     54  CD1 LEU A   4      25.922  12.000   1.435  0.00  0.00    +0.000 C 
ENDBRANCH  51  52
ENDBRANCH  32  51
ENDBRANCH  29  32
ENDBRANCH   1  28
BRANCH   1  55
ATOM     55  CB  LYS A   3      25.138  17.164   6.801  0.00  0.00    +0.029 C 
BRANCH  55  56
ATOM     56  CG  LYS A   3      25.192  16.803   8.257  0.00  0.00    +0.000 C 
BRANCH  56  57
ATOM     57  CD  LYS A   3      26.489  17.299   8.846  0.00  0.00    -0.024 C 
BRANCH  57  58
ATOM     58  CE  LYS A   3      26.598  18.801   8.641  0.00  0.00    -0.086 C 
BRANCH  58  59
ATOM     59  NZ  LYS A   3      27.621  19.416   9.531  0.00  0.00    +0.380 N 
ATOM     60  HZ1 LYS A   3      27.365  19.242  10.524  0.00  0.00    -0.089 HD
ATOM     61  HZ2 LYS A   3      27.660  20.440   9.356  0.00  0.00    -0.089 HD
ATOM     62  HZ3 LYS A   3      28.550  18.993   9.333  0.00  0.00    -0.089 HD
ENDBRANCH  58  59
ENDBRANCH  57  58
ENDBRANCH  56  57
ENDBRANCH  55  56
ENDBRANCH   1  55
TORSDOF 27
REMARK  Name = ../refined-set-2016/4dsu/4dsu_pocket.pdb
REMARK  131 active torsions:
REMARK  status: ('A' for Active; 'I' for Inactive)
REMARK    1  A    between atoms: _1  and  _3
REMARK    2  A    between atoms: _3  and  _4
REMARK    3  A    between atoms: _3  and  _6
REMARK    4  A    between atoms: _6  and  _7
REMARK    5  A    between atoms: _7  and  _8
REMARK    6  A    between atoms: _11  and  _13
REMARK    7  A    between atoms: _13  and  _14
REMARK    8  A    between atoms: _13  and  _16
REMARK    9  A    between atoms: _16  and  _17
REMARK   10  A    between atoms: _22  and  _23
REMARK   11  A    between atoms: _25  and  _27
REMARK   12  A    between atoms: _27  and  _28
REMARK   13  A    between atoms: _27  and  _30
REMARK   14  A    between atoms: _30  and  _31
REMARK   15  A    between atoms: _31  and  _32
REMARK   16  A    between atoms: _32  and  _33
REMARK   17  A    between atoms: _33  and  _34
REMARK   18  A    between atoms: _38  and  _40
REMARK   19  A    between atoms: _40  and  _41
REMARK   20  A    between atoms: _40  and  _43
REMARK   21  A    between atoms: _43  and  _44
REMARK   22  A    between atoms: _47  and  _49
REMARK   23  A    between atoms: _49  and  _50
REMARK   24  A    between atoms: _49  and  _52
REMARK   25  A    between atoms: _55  and  _57
REMARK   26  A    between atoms: _57  and  _58
REMARK   27  A    between atoms: _57  and  _60
REMARK   28  A    between atoms: _63  and  _65
REMARK   29  A    between atoms: _65  and  _66
REMARK   30  A    between atoms: _65  and  _68
REMARK   31  A    between atoms: _68  and  _69
REMARK   32  A    between atoms: _69  and  _70
REMARK   33  A    between atoms: _73  and  _75
REMARK   34  A    between atoms: _75  and  _76
REMARK   35  A    between atoms: _75  and  _78
REMARK   36  A    between atoms: _78  and  _79
REMARK   37  A    between atoms: _82  and  _84
REMARK   38  A    between atoms: _84  and  _85
REMARK   39  A    between atoms: _84  and  _87
REMARK   40  A    between atoms: _87  and  _88
REMARK   41  A    between atoms: _90  and  _92
REMARK   42  A    between atoms: _92  and  _93
REMARK   43  A    between atoms: _92  and  _95
REMARK   44  A    between atoms: _95  and  _96
REMARK   45  A    between atoms: _101  and  _102
REMARK   46  A    between atoms: _104  and  _106
REMARK   47  A    between atoms: _106  and  _107
REMARK   48  A    between atoms: _106  and  _109
REMARK   49  A    between atoms: _109  and  _110
REMARK   50  A    between atoms: _110  and  _111
REMARK   51  A    between atoms: _111  and  _112
REMARK   52  A    between atoms: _121  and  _123
REMARK   53  A    between atoms: _123  and  _124
REMARK   54  A    between atoms: _123  and  _126
REMARK   55  A    between atoms: _126  and  _127
REMARK   56  A    between atoms: _130  and  _132
REMARK   57  A    between atoms: _132  and  _133
REMARK   58  A    between atoms: _132  and  _135
REMARK   59  A    between atoms: _135  and  _136
REMARK   60  A    between atoms: _139  and  _141
REMARK   61  A    between atoms: _141  and  _142
REMARK   62  A    between atoms: _141  and  _144
REMARK   63  A    between atoms: _144  and  _145
REMARK   64  A    between atoms: _148  and  _150
REMARK   65  A    between atoms: _150  and  _151
REMARK   66  A    between atoms: _150  and  _153
REMARK   67  A    between atoms: _153  and  _154
REMARK   68  A    between atoms: _157  and  _159
REMARK   69  A    between atoms: _159  and  _160
REMARK   70  A    between atoms: _159  and  _162
REMARK   71  A    between atoms: _162  and  _163
REMARK   72  A    between atoms: _166  and  _168
REMARK   73  A    between atoms: _168  and  _169
REMARK   74  A    between atoms: _168  and  _171
REMARK   75  A    between atoms: _171  and  _172
REMARK   76  A    between atoms: _175  and  _177
REMARK   77  A    between atoms: _177  and  _178
REMARK   78  A    between atoms: _177  and  _180
REMARK   79  A    between atoms: _180  and  _181
REMARK   80  A    between atoms: _181  and  _182
REMARK   81  A    between atoms: _184  and  _186
REMARK   82  A    between atoms: _186  and  _187
REMARK   83  A    between atoms: _186  and  _189
REMARK   84  A    between atoms: _189  and  _190
REMARK   85  A    between atoms: _190  and  _191
REMARK   86  A    between atoms: _191  and  _192
REMARK   87  A    between atoms: _201  and  _203
REMARK   88  A    between atoms: _203  and  _204
REMARK   89  A    between atoms: _203  and  _206
REMARK   90  A    between atoms: _206  and  _207
REMARK   91  A    between atoms: _207  and  _208
REMARK   92  A    between atoms: _213  and  _215
REMARK   93  A    between atoms: _215  and  _216
REMARK   94  A    between atoms: _215  and  _218
REMARK   95  A    between atoms: _218  and  _219
REMARK   96  A    between atoms: _224  and  _225
REMARK   97  A    between atoms: _227  and  _229
REMARK   98  A    between atoms: _229  and  _230
REMARK   99  A    between atoms: _229  and  _232
REMARK  100  A    between atoms: _232  and  _233
REMARK  101  A    between atoms: _233  and  _234
REMARK  102  A    between atoms: _236  and  _238
REMARK  103  A    between atoms: _238  and  _239
REMARK  104  A    between atoms: _238  and  _241
REMARK  105  A    between atoms: _241  and  _242
REMARK  106  A    between atoms: _242  and  _243
REMARK  107  A    between atoms: _243  and  _244
REMARK  108  A    between atoms: _253  and  _255
REMARK  109  A    between atoms: _255  and  _256
REMARK  110  A    between atoms: _255  and  _258
REMARK  111  A    between atoms: _258  and  _259
REMARK  112  A    between atoms: _262  and  _264
REMARK  113  A    between atoms: _264  and  _265
REMARK  114  A    between atoms: _267  and  _269
REMARK  115  A    between atoms: _269  and  _270
REMARK  116  A    between atoms: _269  and  _272
REMARK  117  A    between atoms: _272  and  _273
REMARK  118  A    between atoms: _273  and  _274
REMARK  119  A    between atoms: _277  and  _279
REMARK  120  A    between atoms: _279  and  _280
REMARK  121  A    between atoms: _282  and  _284
REMARK  122  A    between atoms: _284  and  _285
REMARK  123  A    between atoms: _284  and  _287
REMARK  124  A    between atoms: _287  and  _288
REMARK  125  A    between atoms: _294  and  _296
REMARK  126  A    between atoms: _296  and  _297
REMARK  127  A    between atoms: _296  and  _299
REMARK  128  A    between atoms: _299  and  _300
REMARK  129  A    between atoms: _300  and  _301
REMARK  130  A    between atoms: _301  and  _302
REMARK  131  A    between atoms: _302  and  _303
REMARK                            x       y       z     vdW  Elec       q    Type
REMARK                         _______ _______ _______ _____ _____    ______ ____
ROOT
ATOM      1  C   SER A   3      26.713   6.930  11.184  0.00  0.00    +0.243 C 
ATOM      2  O   SER A   3      27.323   6.226  11.991  0.00  0.00    -0.273 OA
ATOM      3  N   TYR A   4      27.210   7.278  10.006  0.00  0.00    -0.297 N 
ATOM      4  H   TYR A   4      26.646   7.880   9.372  0.00  0.00    +0.150 HD
ENDROOT
BRANCH   1   5
ATOM      5  CA  SER A   3      25.308   7.435  11.488  0.00  0.00    +0.178 C 
BRANCH   5   7
ATOM      6  C   ASP A   2      23.443   6.012  12.041  0.00  0.00    +0.241 C 
ATOM      7  N   SER A   3      24.636   6.487  12.362  0.00  0.00    -0.295 N 
ATOM      8  H   SER A   3      25.095   6.181  13.244  0.00  0.00    +0.150 HD
ATOM      9  O   ASP A   2      22.766   6.490  11.137  0.00  0.00    -0.273 OA
BRANCH   6  10
ATOM     10  CA  ASP A   2      22.940   4.828  12.848  0.00  0.00    +0.160 C 
BRANCH  10  13
ATOM     11  C   GLU A   1      20.777   5.183  13.908  0.00  0.00    +0.238 C 
ATOM     12  O   GLU A   1      21.288   5.538  14.973  0.00  0.00    -0.274 OA
ATOM     13  N   ASP A   2      21.486   4.813  12.850  0.00  0.00    -0.297 N 
ATOM     14  H   ASP A   2      20.985   4.502  11.993  0.00  0.00    +0.150 HD
BRANCH  11  15
ATOM     15  CA  GLU A   1      19.263   5.134  13.735  0.00  0.00    +0.145 C 
BRANCH  15  16
ATOM     16  N   GLU A   1      18.658   4.189  14.664  0.00  0.00    -0.238 NA
ATOM     17  H   GLU A   1      18.601   4.438  15.672  0.00  0.00    +0.142 HD
ENDBRANCH  15  16
BRANCH  15  18
ATOM     18  CB  GLU A   1      18.669   6.530  13.913  0.00  0.00    +0.038 C 
BRANCH  18  19
ATOM     19  CG  GLU A   1      17.200   6.620  13.559  0.00  0.00    +0.116 C 
BRANCH  19  20
ATOM     20  CD  GLU A   1      16.720   8.049  13.462  0.00  0.00    +0.365 C 
ATOM     21  OE2 GLU A   1      17.423   8.945  13.979  0.00  0.00    -0.246 OA
ATOM     22  OE1 GLU A   1      15.644   8.276  12.870  0.00  0.00    -0.246 OA
ENDBRANCH  19  20
ENDBRANCH  18  19
ENDBRANCH  15  18
ENDBRANCH  11  15
ENDBRANCH  10  13
BRANCH  10  23
ATOM     23  CB  ASP A   2      23.483   3.541  12.220  0.00  0.00    +0.143 C 
BRANCH  23  24
ATOM     24  CG  ASP A   2      23.148   2.304  13.031  0.00  0.00    +0.367 C 
ATOM     25  OD2 ASP A   2      23.769   2.107  14.098  0.00  0.00    -0.246 OA
ATOM     26  OD1 ASP A   2      22.271   1.526  12.592  0.00  0.00    -0.246 OA
ENDBRANCH  23  24
ENDBRANCH  10  23
ENDBRANCH   6  10
ENDBRANCH   5   7
BRANCH   5  27
ATOM     27  CB  SER A   3      25.351   8.831  12.106  0.00  0.00    +0.166 C 
BRANCH  27  28
ATOM     28  OG  SER A   3      26.035   8.816  13.339  0.00  0.00    -0.380 OA
ATOM     29  H   SER A   3      26.049   9.730  13.718  0.00  0.00    +0.211 HD
ENDBRANCH  27  28
ENDBRANCH   5  27
ENDBRANCH   1   5
BRANCH   3  30
ATOM     30  CA  TYR A   4      28.522   6.837   9.584  0.00  0.00    +0.153 C 
BRANCH  30  31
ATOM     31  C   TYR A   4      29.270   7.974   8.928  0.00  0.00    +0.241 C 
ATOM     32  N   ARG A   5      30.592   7.890   9.000  0.00  0.00    -0.298 N 
ATOM     33  H   ARG A   5      31.015   7.108   9.540  0.00  0.00    +0.150 HD
ATOM     34  O   TYR A   4      28.670   8.899   8.371  0.00  0.00    -0.273 OA
BRANCH  32  35
ATOM     35  CA  ARG A   5      31.468   8.845   8.355  0.00  0.00    +0.137 C 
BRANCH  35  36
ATOM     36  C   ARG A   5      32.303   8.108   7.319  0.00  0.00    +0.227 C 
ATOM     37  O   ARG A   5      32.742   6.972   7.548  0.00  0.00    -0.286 OA
ENDBRANCH  35  36
BRANCH  35  38
ATOM     38  CB  ARG A   5      32.404   9.490   9.379  0.00  0.00    +0.031 C 
BRANCH  38  39
ATOM     39  CG  ARG A   5      31.962  10.848   9.937  0.00  0.00    +0.045 C 
BRANCH  39  40
ATOM     40  CD  ARG A   5      30.699  10.762  10.781  0.00  0.00    +0.174 C 
BRANCH  40  41
ATOM     41  NE  ARG A   5      30.737   9.689  11.772  0.00  0.00    -0.265 N 
ATOM     42  CZ  ARG A   5      29.670   9.269  12.443  0.00  0.00    +0.342 C 
ATOM     43  NH2 ARG A   5      29.780   8.282  13.322  0.00  0.00    -0.292 N 
ATOM     44 HH21 ARG A   5      28.942   7.956  13.845  0.00  0.00    +0.255 HD
ATOM     45 HH22 ARG A   5      30.704   7.834  13.488  0.00  0.00    +0.255 HD
ATOM     46  NH1 ARG A   5      28.486   9.833  12.225  0.00  0.00    -0.292 N 
ATOM     47 HH11 ARG A   5      27.650   9.506  12.749  0.00  0.00    +0.255 HD
ATOM     48 HH12 ARG A   5      28.396  10.602  11.530  0.00  0.00    +0.255 HD
ATOM     49  HE  ARG A   5      31.650   9.229  11.963  0.00  0.00    +0.259 HD
ENDBRANCH  40  41
ENDBRANCH  39  40
ENDBRANCH  38  39
ENDBRANCH  35  38
ENDBRANCH  32  35
ENDBRANCH  30  31
BRANCH  30  50
ATOM     50  CB  TYR A   4      28.417   5.679   8.595  0.00  0.00    +0.055 C 
BRANCH  50  51
ATOM     51  CG  TYR A   4      27.548   4.537   9.052  0.00  0.00    -0.020 A 
ATOM     52  CD2 TYR A   4      28.100   3.412   9.662  0.00  0.00    -0.001 A 
ATOM     53  CE2 TYR A   4      27.298   2.357  10.069  0.00  0.00    +0.036 A 
ATOM     54  CZ  TYR A   4      25.932   2.425   9.860  0.00  0.00    +0.134 A 
ATOM     55  CE1 TYR A   4      25.370   3.529   9.252  0.00  0.00    +0.036 A 
ATOM     56  CD1 TYR A   4      26.176   4.571   8.852  0.00  0.00    -0.001 A 
BRANCH  54  57
ATOM     57  OH  TYR A   4      25.114   1.393  10.254  0.00  0.00    -0.506 OA
ATOM     58  HH  TYR A   4      24.176   1.612  10.027  0.00  0.00    +0.292 HD
ENDBRANCH  54  57
ENDBRANCH  50  51
ENDBRANCH  30  50
ENDBRANCH   3  30
TORSDOF 24
REMARK  Name = ../refined-set-2016/4dsu/4dsu_pocket.pdb
REMARK  131 active torsions:
REMARK  status: ('A' for Active; 'I' for Inactive)
REMARK    1  A    between atoms: _1  and  _3
REMARK    2  A    between atoms: _3  and  _4
REMARK    3  A    between atoms: _3  and  _6
REMARK    4  A    between atoms: _6  and  _7
REMARK    5  A    between atoms: _7  and  _8
REMARK    6  A    between atoms: _11  and  _13
REMARK    7  A    between atoms: _13  and  _14
REMARK    8  A    between atoms: _13  and  _16
REMARK    9  A    between atoms: _16  and  _17
REMARK   10  A    between atoms: _22  and  _23
REMARK   11  A    between atoms: _25  and  _27
REMARK   12  A    between atoms: _27  and  _28
REMARK   13  A    between atoms: _27  and  _30
REMARK   14  A    between atoms: _30  and  _31
REMARK   15  A    between atoms: _31  and  _32
REMARK   16  A    between atoms: _32  and  _33
REMARK   17  A    between atoms: _33  and  _34
REMARK   18  A    between atoms: _38  and  _40
REMARK   19  A    between atoms: _40  and  _41
REMARK   20  A    between atoms: _40  and  _43
REMARK   21  A    between atoms: _43  and  _44
REMARK   22  A    between atoms: _47  and  _49
REMARK   23  A    between atoms: _49  and  _50
REMARK   24  A    between atoms: _49  and  _52
REMARK   25  A    between atoms: _55  and  _57
REMARK   26  A    between atoms: _57  and  _58
REMARK   27  A    between atoms: _57  and  _60
REMARK   28  A    between atoms: _63  and  _65
REMARK   29  A    between atoms: _65  and  _66
REMARK   30  A    between atoms: _65  and  _68
REMARK   31  A    between atoms: _68  and  _69
REMARK   32  A    between atoms: _69  and  _70
REMARK   33  A    between atoms: _73  and  _75
REMARK   34  A    between atoms: _75  and  _76
REMARK   35  A    between atoms: _75  and  _78
REMARK   36  A    between atoms: _78  and  _79
REMARK   37  A    between atoms: _82  and  _84
REMARK   38  A    between atoms: _84  and  _85
REMARK   39  A    between atoms: _84  and  _87
REMARK   40  A    between atoms: _87  and  _88
REMARK   41  A    between atoms: _90  and  _92
REMARK   42  A    between atoms: _92  and  _93
REMARK   43  A    between atoms: _92  and  _95
REMARK   44  A    between atoms: _95  and  _96
REMARK   45  A    between atoms: _101  and  _102
REMARK   46  A    between atoms: _104  and  _106
REMARK   47  A    between atoms: _106  and  _107
REMARK   48  A    between atoms: _106  and  _109
REMARK   49  A    between atoms: _109  and  _110
REMARK   50  A    between atoms: _110  and  _111
REMARK   51  A    between atoms: _111  and  _112
REMARK   52  A    between atoms: _121  and  _123
REMARK   53  A    between atoms: _123  and  _124
REMARK   54  A    between atoms: _123  and  _126
REMARK   55  A    between atoms: _126  and  _127
REMARK   56  A    between atoms: _130  and  _132
REMARK   57  A    between atoms: _132  and  _133
REMARK   58  A    between atoms: _132  and  _135
REMARK   59  A    between atoms: _135  and  _136
REMARK   60  A    between atoms: _139  and  _141
REMARK   61  A    between atoms: _141  and  _142
REMARK   62  A    between atoms: _141  and  _144
REMARK   63  A    between atoms: _144  and  _145
REMARK   64  A    between atoms: _148  and  _150
REMARK   65  A    between atoms: _150  and  _151
REMARK   66  A    between atoms: _150  and  _153
REMARK   67  A    between atoms: _153  and  _154
REMARK   68  A    between atoms: _157  and  _159
REMARK   69  A    between atoms: _159  and  _160
REMARK   70  A    between atoms: _159  and  _162
REMARK   71  A    between atoms: _162  and  _163
REMARK   72  A    between atoms: _166  and  _168
REMARK   73  A    between atoms: _168  and  _169
REMARK   74  A    between atoms: _168  and  _171
REMARK   75  A    between atoms: _171  and  _172
REMARK   76  A    between atoms: _175  and  _177
REMARK   77  A    between atoms: _177  and  _178
REMARK   78  A    between atoms: _177  and  _180
REMARK   79  A    between atoms: _180  and  _181
REMARK   80  A    between atoms: _181  and  _182
REMARK   81  A    between atoms: _184  and  _186
REMARK   82  A    between atoms: _186  and  _187
REMARK   83  A    between atoms: _186  and  _189
REMARK   84  A    between atoms: _189  and  _190
REMARK   85  A    between atoms: _190  and  _191
REMARK   86  A    between atoms: _191  and  _192
REMARK   87  A    between atoms: _201  and  _203
REMARK   88  A    between atoms: _203  and  _204
REMARK   89  A    between atoms: _203  and  _206
REMARK   90  A    between atoms: _206  and  _207
REMARK   91  A    between atoms: _207  and  _208
REMARK   92  A    between atoms: _213  and  _215
REMARK   93  A    between atoms: _215  and  _216
REMARK   94  A    between atoms: _215  and  _218
REMARK   95  A    between atoms: _218  and  _219
REMARK   96  A    between atoms: _224  and  _225
REMARK   97  A    between atoms: _227  and  _229
REMARK   98  A    between atoms: _229  and  _230
REMARK   99  A    between atoms: _229  and  _232
REMARK  100  A    between atoms: _232  and  _233
REMARK  101  A    between atoms: _233  and  _234
REMARK  102  A    between atoms: _236  and  _238
REMARK  103  A    between atoms: _238  and  _239
REMARK  104  A    between atoms: _238  and  _241
REMARK  105  A    between atoms: _241  and  _242
REMARK  106  A    between atoms: _242  and  _243
REMARK  107  A    between atoms: _243  and  _244
REMARK  108  A    between atoms: _253  and  _255
REMARK  109  A    between atoms: _255  and  _256
REMARK  110  A    between atoms: _255  and  _258
REMARK  111  A    between atoms: _258  and  _259
REMARK  112  A    between atoms: _262  and  _264
REMARK  113  A    between atoms: _264  and  _265
REMARK  114  A    between atoms: _267  and  _269
REMARK  115  A    between atoms: _269  and  _270
REMARK  116  A    between atoms: _269  and  _272
REMARK  117  A    between atoms: _272  and  _273
REMARK  118  A    between atoms: _273  and  _274
REMARK  119  A    between atoms: _277  and  _279
REMARK  120  A    between atoms: _279  and  _280
REMARK  121  A    between atoms: _282  and  _284
REMARK  122  A    between atoms: _284  and  _285
REMARK  123  A    between atoms: _284  and  _287
REMARK  124  A    between atoms: _287  and  _288
REMARK  125  A    between atoms: _294  and  _296
REMARK  126  A    between atoms: _296  and  _297
REMARK  127  A    between atoms: _296  and  _299
REMARK  128  A    between atoms: _299  and  _300
REMARK  129  A    between atoms: _300  and  _301
REMARK  130  A    between atoms: _301  and  _302
REMARK  131  A    between atoms: _302  and  _303
REMARK                            x       y       z     vdW  Elec       q    Type
REMARK                         _______ _______ _______ _____ _____    ______ ____
ROOT
ATOM      1  C   ILE A   3      24.626   9.565   7.944  0.00  0.00    +0.241 C 
ATOM      2  O   ILE A   3      25.044   8.734   8.751  0.00  0.00    -0.273 OA
ATOM      3  N   LEU A   4      23.406  10.077   8.005  0.00  0.00    -0.297 N 
ATOM      4  H   LEU A   4      23.142  10.845   7.355  0.00  0.00    +0.150 HD
ENDROOT
BRANCH   1   5
ATOM      5  CA  ILE A   3      25.503  10.067   6.807  0.00  0.00    +0.149 C 
BRANCH   5   7
ATOM      6  C   ASP A   2      27.091  11.888   7.142  0.00  0.00    +0.241 C 
ATOM      7  N   ILE A   3      26.769  10.604   7.288  0.00  0.00    -0.297 N 
ATOM      8  H   ILE A   3      27.441   9.966   7.759  0.00  0.00    +0.150 HD
ATOM      9  O   ASP A   2      26.290  12.751   6.803  0.00  0.00    -0.273 OA
BRANCH   6  10
ATOM     10  CA  ASP A   2      28.537  12.251   7.399  0.00  0.00    +0.160 C 
BRANCH  10  13
ATOM     11  C   LEU A   1      30.122  11.883   5.610  0.00  0.00    +0.238 C 
ATOM     12  O   LEU A   1      30.739  11.040   6.265  0.00  0.00    -0.274 OA
ATOM     13  N   ASP A   2      29.095  12.559   6.095  0.00  0.00    -0.297 N 
ATOM     14  H   ASP A   2      28.678  13.327   5.531  0.00  0.00    +0.150 HD
BRANCH  11  15
ATOM     15  CA  LEU A   1      30.537  12.242   4.194  0.00  0.00    +0.145 C 
BRANCH  15  16
ATOM     16  N   LEU A   1      31.973  12.487   4.157  0.00  0.00    -0.238 NA
ATOM     17  H   LEU A   1      32.626  11.703   3.955  0.00  0.00    +0.142 HD
ENDBRANCH  15  16
BRANCH  15  18
ATOM     18  CB  LEU A   1      30.138  11.130   3.224  0.00  0.00    +0.026 C 
BRANCH  18  19
ATOM     19  CG  LEU A   1      30.632  11.285   1.786  0.00  0.00    +0.002 C 
ATOM     20  CD2 LEU A   1      30.311  12.674   1.241  0.00  0.00    +0.000 C 
ATOM     21  CD1 LEU A   1      30.041  10.202   0.897  0.00  0.00    +0.000 C 
ENDBRANCH  18  19
ENDBRANCH  15  18
ENDBRANCH  11  15
ENDBRANCH  10  13
BRANCH  10  22
ATOM     22  CB  ASP A   2      28.633  13.460   8.327  0.00  0.00    +0.143 C 
BRANCH  22  23
ATOM     23  CG  ASP A   2      28.405  13.095   9.779  0.00  0.00    +0.367 C 
ATOM     24  OD2 ASP A   2      28.911  13.823  10.660  0.00  0.00    -0.246 OA
ATOM     25  OD1 ASP A   2      27.723  12.080  10.042  0.00  0.00    -0.246 OA
ENDBRANCH  22  23
ENDBRANCH  10  22
ENDBRANCH   6  10
ENDBRANCH   5   7
BRANCH   5  26
ATOM     26  CB  ILE A   3      25.745   8.915   5.801  0.00  0.00    +0.027 C 
ATOM     27  CG2 ILE A   3      24.416   8.365   5.269  0.00  0.00    +0.002 C 
BRANCH  26  28
ATOM     28  CG1 ILE A   3      26.622   9.411   4.650  0.00  0.00    +0.002 C 
ATOM     29  CD1 ILE A   3      27.303   8.311   3.859  0.00  0.00    +0.000 C 
ENDBRANCH  26  28
ENDBRANCH   5  26
ENDBRANCH   1   5
BRANCH   3  30
ATOM     30  CA  LEU A   4      22.427   9.586   8.965  0.00  0.00    +0.149 C 
BRANCH  30  31
ATOM     31  C   LEU A   4      21.461   8.615   8.298  0.00  0.00    +0.241 C 
ATOM     32  N   ASP A   5      21.413   7.395   8.822  0.00  0.00    -0.297 N 
ATOM     33  H   ASP A   5      22.040   7.176   9.623  0.00  0.00    +0.150 HD
ATOM     34  O   LEU A   4      20.784   8.968   7.332  0.00  0.00    -0.273 OA
BRANCH  32  35
ATOM     35  CA  ASP A   5      20.525   6.346   8.331  0.00  0.00    +0.160 C 
BRANCH  35  36
ATOM     36  C   ASP A   5      19.281   6.288   9.219  0.00  0.00    +0.241 C 
ATOM     37  O   ASP A   5      19.318   5.705  10.300  0.00  0.00    -0.273 OA
ATOM     38  N   THR A   6      18.188   6.905   8.774  0.00  0.00    -0.296 N 
ATOM     39  H   THR A   6      18.164   7.262   7.797  0.00  0.00    +0.150 HD
BRANCH  38  40
ATOM     40  CA  THR A   6      17.016   7.090   9.638  0.00  0.00    +0.164 C 
BRANCH  40  41
ATOM     41  C   THR A   6      16.173   5.831   9.831  0.00  0.00    +0.229 C 
ATOM     42  O   THR A   6      16.162   4.945   8.981  0.00  0.00    -0.286 OA
ENDBRANCH  40  41
BRANCH  40  43
ATOM     43  CB  THR A   6      16.098   8.238   9.148  0.00  0.00    +0.136 C 
ATOM     44  CG2 THR A   6      16.891   9.528   8.994  0.00  0.00    +0.034 C 
BRANCH  43  45
ATOM     45  OG1 THR A   6      15.484   7.884   7.896  0.00  0.00    -0.382 OA
ATOM     46  HG1 THR A   6      16.188   7.720   7.219  0.00  0.00    +0.210 HD
ENDBRANCH  43  45
ENDBRANCH  40  43
ENDBRANCH  38  40
ENDBRANCH  35  36
BRANCH  35  47
ATOM     47  CB  ASP A   5      21.277   5.011   8.347  0.00  0.00    +0.143 C 
BRANCH  47  48
ATOM     48  CG  ASP A   5      20.390   3.822   8.060  0.00  0.00    +0.367 C 
ATOM     49  OD2 ASP A   5      20.706   2.721   8.567  0.00  0.00    -0.246 OA
ATOM     50  OD1 ASP A   5      19.391   3.978   7.330  0.00  0.00    -0.246 OA
ENDBRANCH  47  48
ENDBRANCH  35  47
ENDBRANCH  32  35
ENDBRANCH  30  31
BRANCH  30  51
ATOM     51  CB  LEU A   4      21.635  10.742   9.567  0.00  0.00    +0.029 C 
BRANCH  51  52
ATOM     52  CG  LEU A   4      20.597  10.311  10.602  0.00  0.00    +0.002 C 
ATOM     53  CD2 LEU A   4      21.269   9.732  11.840  0.00  0.00    +0.000 C 
ATOM     54  CD1 LEU A   4      19.700  11.475  10.963  0.00  0.00    +0.000 C 
ENDBRANCH  51  52
ENDBRANCH  30  51
ENDBRANCH   3  30
TORSDOF 24
REMARK  Name = ../refined-set-2016/4dsu/4dsu_pocket.pdb
REMARK  131 active torsions:
REMARK  status: ('A' for Active; 'I' for Inactive)
REMARK    1  A    between atoms: _1  and  _3
REMARK    2  A    between atoms: _3  and  _4
REMARK    3  A    between atoms: _3  and  _6
REMARK    4  A    between atoms: _6  and  _7
REMARK    5  A    between atoms: _7  and  _8
REMARK    6  A    between atoms: _11  and  _13
REMARK    7  A    between atoms: _13  and  _14
REMARK    8  A    between atoms: _13  and  _16
REMARK    9  A    between atoms: _16  and  _17
REMARK   10  A    between atoms: _22  and  _23
REMARK   11  A    between atoms: _25  and  _27
REMARK   12  A    between atoms: _27  and  _28
REMARK   13  A    between atoms: _27  and  _30
REMARK   14  A    between atoms: _30  and  _31
REMARK   15  A    between atoms: _31  and  _32
REMARK   16  A    between atoms: _32  and  _33
REMARK   17  A    between atoms: _33  and  _34
REMARK   18  A    between atoms: _38  and  _40
REMARK   19  A    between atoms: _40  and  _41
REMARK   20  A    between atoms: _40  and  _43
REMARK   21  A    between atoms: _43  and  _44
REMARK   22  A    between atoms: _47  and  _49
REMARK   23  A    between atoms: _49  and  _50
REMARK   24  A    between atoms: _49  and  _52
REMARK   25  A    between atoms: _55  and  _57
REMARK   26  A    between atoms: _57  and  _58
REMARK   27  A    between atoms: _57  and  _60
REMARK   28  A    between atoms: _63  and  _65
REMARK   29  A    between atoms: _65  and  _66
REMARK   30  A    between atoms: _65  and  _68
REMARK   31  A    between atoms: _68  and  _69
REMARK   32  A    between atoms: _69  and  _70
REMARK   33  A    between atoms: _73  and  _75
REMARK   34  A    between atoms: _75  and  _76
REMARK   35  A    between atoms: _75  and  _78
REMARK   36  A    between atoms: _78  and  _79
REMARK   37  A    between atoms: _82  and  _84
REMARK   38  A    between atoms: _84  and  _85
REMARK   39  A    between atoms: _84  and  _87
REMARK   40  A    between atoms: _87  and  _88
REMARK   41  A    between atoms: _90  and  _92
REMARK   42  A    between atoms: _92  and  _93
REMARK   43  A    between atoms: _92  and  _95
REMARK   44  A    between atoms: _95  and  _96
REMARK   45  A    between atoms: _101  and  _102
REMARK   46  A    between atoms: _104  and  _106
REMARK   47  A    between atoms: _106  and  _107
REMARK   48  A    between atoms: _106  and  _109
REMARK   49  A    between atoms: _109  and  _110
REMARK   50  A    between atoms: _110  and  _111
REMARK   51  A    between atoms: _111  and  _112
REMARK   52  A    between atoms: _121  and  _123
REMARK   53  A    between atoms: _123  and  _124
REMARK   54  A    between atoms: _123  and  _126
REMARK   55  A    between atoms: _126  and  _127
REMARK   56  A    between atoms: _130  and  _132
REMARK   57  A    between atoms: _132  and  _133
REMARK   58  A    between atoms: _132  and  _135
REMARK   59  A    between atoms: _135  and  _136
REMARK   60  A    between atoms: _139  and  _141
REMARK   61  A    between atoms: _141  and  _142
REMARK   62  A    between atoms: _141  and  _144
REMARK   63  A    between atoms: _144  and  _145
REMARK   64  A    between atoms: _148  and  _150
REMARK   65  A    between atoms: _150  and  _151
REMARK   66  A    between atoms: _150  and  _153
REMARK   67  A    between atoms: _153  and  _154
REMARK   68  A    between atoms: _157  and  _159
REMARK   69  A    between atoms: _159  and  _160
REMARK   70  A    between atoms: _159  and  _162
REMARK   71  A    between atoms: _162  and  _163
REMARK   72  A    between atoms: _166  and  _168
REMARK   73  A    between atoms: _168  and  _169
REMARK   74  A    between atoms: _168  and  _171
REMARK   75  A    between atoms: _171  and  _172
REMARK   76  A    between atoms: _175  and  _177
REMARK   77  A    between atoms: _177  and  _178
REMARK   78  A    between atoms: _177  and  _180
REMARK   79  A    between atoms: _180  and  _181
REMARK   80  A    between atoms: _181  and  _182
REMARK   81  A    between atoms: _184  and  _186
REMARK   82  A    between atoms: _186  and  _187
REMARK   83  A    between atoms: _186  and  _189
REMARK   84  A    between atoms: _189  and  _190
REMARK   85  A    between atoms: _190  and  _191
REMARK   86  A    between atoms: _191  and  _192
REMARK   87  A    between atoms: _201  and  _203
REMARK   88  A    between atoms: _203  and  _204
REMARK   89  A    between atoms: _203  and  _206
REMARK   90  A    between atoms: _206  and  _207
REMARK   91  A    between atoms: _207  and  _208
REMARK   92  A    between atoms: _213  and  _215
REMARK   93  A    between atoms: _215  and  _216
REMARK   94  A    between atoms: _215  and  _218
REMARK   95  A    between atoms: _218  and  _219
REMARK   96  A    between atoms: _224  and  _225
REMARK   97  A    between atoms: _227  and  _229
REMARK   98  A    between atoms: _229  and  _230
REMARK   99  A    between atoms: _229  and  _232
REMARK  100  A    between atoms: _232  and  _233
REMARK  101  A    between atoms: _233  and  _234
REMARK  102  A    between atoms: _236  and  _238
REMARK  103  A    between atoms: _238  and  _239
REMARK  104  A    between atoms: _238  and  _241
REMARK  105  A    between atoms: _241  and  _242
REMARK  106  A    between atoms: _242  and  _243
REMARK  107  A    between atoms: _243  and  _244
REMARK  108  A    between atoms: _253  and  _255
REMARK  109  A    between atoms: _255  and  _256
REMARK  110  A    between atoms: _255  and  _258
REMARK  111  A    between atoms: _258  and  _259
REMARK  112  A    between atoms: _262  and  _264
REMARK  113  A    between atoms: _264  and  _265
REMARK  114  A    between atoms: _267  and  _269
REMARK  115  A    between atoms: _269  and  _270
REMARK  116  A    between atoms: _269  and  _272
REMARK  117  A    between atoms: _272  and  _273
REMARK  118  A    between atoms: _273  and  _274
REMARK  119  A    between atoms: _277  and  _279
REMARK  120  A    between atoms: _279  and  _280
REMARK  121  A    between atoms: _282  and  _284
REMARK  122  A    between atoms: _284  and  _285
REMARK  123  A    between atoms: _284  and  _287
REMARK  124  A    between atoms: _287  and  _288
REMARK  125  A    between atoms: _294  and  _296
REMARK  126  A    between atoms: _296  and  _297
REMARK  127  A    between atoms: _296  and  _299
REMARK  128  A    between atoms: _299  and  _300
REMARK  129  A    between atoms: _300  and  _301
REMARK  130  A    between atoms: _301  and  _302
REMARK  131  A    between atoms: _302  and  _303
REMARK                            x       y       z     vdW  Elec       q    Type
REMARK                         _______ _______ _______ _____ _____    ______ ____
ROOT
ATOM      1  CA  ARG A   2      13.319  14.193  13.342  0.00  0.00    +0.137 C 
ENDROOT
BRANCH   1   4
ATOM      2  C   MET A   1      14.583  14.328  15.430  0.00  0.00    +0.238 C 
ATOM      3  O   MET A   1      15.636  14.631  14.867  0.00  0.00    -0.274 OA
ATOM      4  N   ARG A   2      13.432  14.139  14.790  0.00  0.00    -0.298 N 
ATOM      5  H   ARG A   2      12.577  13.944  15.349  0.00  0.00    +0.150 HD
BRANCH   2   6
ATOM      6  CA  MET A   1      14.514  14.166  16.939  0.00  0.00    +0.146 C 
BRANCH   6   7
ATOM      7  N   MET A   1      13.266  14.784  17.364  0.00  0.00    -0.238 NA
ATOM      8  H   MET A   1      12.366  14.390  17.022  0.00  0.00    +0.142 HD
ENDBRANCH   6   7
BRANCH   6   9
ATOM      9  CB  MET A   1      14.531  12.678  17.297  0.00  0.00    +0.038 C 
BRANCH   9  10
ATOM     10  CG  MET A   1      14.306  11.759  16.097  0.00  0.00    +0.060 C 
BRANCH  10  11
ATOM     11  SD  MET A   1      13.653  10.124  16.493  0.00  0.00    -0.139 S 
ATOM     12  CE  MET A   1      15.127   9.290  17.080  0.00  0.00    +0.069 C 
ENDBRANCH  10  11
ENDBRANCH   9  10
ENDBRANCH   6   9
ENDBRANCH   2   6
ENDBRANCH   1   4
BRANCH   1  13
ATOM     13  C   ARG A   2      13.624  15.592  12.838  0.00  0.00    +0.227 C 
ATOM     14  O   ARG A   2      14.389  15.769  11.892  0.00  0.00    -0.286 OA
ENDBRANCH   1  13
BRANCH   1  15
ATOM     15  CB  ARG A   2      11.909  13.792  12.902  0.00  0.00    +0.031 C 
BRANCH  15  16
ATOM     16  CG  ARG A   2      11.369  12.533  13.560  0.00  0.00    +0.045 C 
BRANCH  16  17
ATOM     17  CD  ARG A   2       9.881  12.359  13.262  0.00  0.00    +0.174 C 
BRANCH  17  18
ATOM     18  NE  ARG A   2       9.314  11.177  13.909  0.00  0.00    -0.265 N 
ATOM     19  HE  ARG A   2       9.946  10.590  14.490  0.00  0.00    +0.259 HD
ATOM     20  CZ  ARG A   2       8.041  10.803  13.803  0.00  0.00    +0.342 C 
ATOM     21  NH2 ARG A   2       7.613   9.712  14.426  0.00  0.00    -0.292 N 
ATOM     22 HH21 ARG A   2       8.273   9.147  14.998  0.00  0.00    +0.255 HD
ATOM     23 HH22 ARG A   2       6.618   9.422  14.342  0.00  0.00    +0.255 HD
ATOM     24  NH1 ARG A   2       7.195  11.519  13.073  0.00  0.00    -0.292 N 
ATOM     25 HH11 ARG A   2       6.201  11.225  12.992  0.00  0.00    +0.255 HD
ATOM     26 HH12 ARG A   2       7.526  12.374  12.582  0.00  0.00    +0.255 HD
ENDBRANCH  17  18
ENDBRANCH  16  17
ENDBRANCH  15  16
ENDBRANCH   1  15
TORSDOF 11
REMARK  Name = ../refined-set-2016/4dsu/4dsu_pocket.pdb
REMARK  131 active torsions:
REMARK  status: ('A' for Active; 'I' for Inactive)
REMARK    1  A    between atoms: _1  and  _3
REMARK    2  A    between atoms: _3  and  _4
REMARK    3  A    between atoms: _3  and  _6
REMARK    4  A    between atoms: _6  and  _7
REMARK    5  A    between atoms: _7  and  _8
REMARK    6  A    between atoms: _11  and  _13
REMARK    7  A    between atoms: _13  and  _14
REMARK    8  A    between atoms: _13  and  _16
REMARK    9  A    between atoms: _16  and  _17
REMARK   10  A    between atoms: _22  and  _23
REMARK   11  A    between atoms: _25  and  _27
REMARK   12  A    between atoms: _27  and  _28
REMARK   13  A    between atoms: _27  and  _30
REMARK   14  A    between atoms: _30  and  _31
REMARK   15  A    between atoms: _31  and  _32
REMARK   16  A    between atoms: _32  and  _33
REMARK   17  A    between atoms: _33  and  _34
REMARK   18  A    between atoms: _38  and  _40
REMARK   19  A    between atoms: _40  and  _41
REMARK   20  A    between atoms: _40  and  _43
REMARK   21  A    between atoms: _43  and  _44
REMARK   22  A    between atoms: _47  and  _49
REMARK   23  A    between atoms: _49  and  _50
REMARK   24  A    between atoms: _49  and  _52
REMARK   25  A    between atoms: _55  and  _57
REMARK   26  A    between atoms: _57  and  _58
REMARK   27  A    between atoms: _57  and  _60
REMARK   28  A    between atoms: _63  and  _65
REMARK   29  A    between atoms: _65  and  _66
REMARK   30  A    between atoms: _65  and  _68
REMARK   31  A    between atoms: _68  and  _69
REMARK   32  A    between atoms: _69  and  _70
REMARK   33  A    between atoms: _73  and  _75
REMARK   34  A    between atoms: _75  and  _76
REMARK   35  A    between atoms: _75  and  _78
REMARK   36  A    between atoms: _78  and  _79
REMARK   37  A    between atoms: _82  and  _84
REMARK   38  A    between atoms: _84  and  _85
REMARK   39  A    between atoms: _84  and  _87
REMARK   40  A    between atoms: _87  and  _88
REMARK   41  A    between atoms: _90  and  _92
REMARK   42  A    between atoms: _92  and  _93
REMARK   43  A    between atoms: _92  and  _95
REMARK   44  A    between atoms: _95  and  _96
REMARK   45  A    between atoms: _101  and  _102
REMARK   46  A    between atoms: _104  and  _106
REMARK   47  A    between atoms: _106  and  _107
REMARK   48  A    between atoms: _106  and  _109
REMARK   49  A    between atoms: _109  and  _110
REMARK   50  A    between atoms: _110  and  _111
REMARK   51  A    between atoms: _111  and  _112
REMARK   52  A    between atoms: _121  and  _123
REMARK   53  A    between atoms: _123  and  _124
REMARK   54  A    between atoms: _123  and  _126
REMARK   55  A    between atoms: _126  and  _127
REMARK   56  A    between atoms: _130  and  _132
REMARK   57  A    between atoms: _132  and  _133
REMARK   58  A    between atoms: _132  and  _135
REMARK   59  A    between atoms: _135  and  _136
REMARK   60  A    between atoms: _139  and  _141
REMARK   61  A    between atoms: _141  and  _142
REMARK   62  A    between atoms: _141  and  _144
REMARK   63  A    between atoms: _144  and  _145
REMARK   64  A    between atoms: _148  and  _150
REMARK   65  A    between atoms: _150  and  _151
REMARK   66  A    between atoms: _150  and  _153
REMARK   67  A    between atoms: _153  and  _154
REMARK   68  A    between atoms: _157  and  _159
REMARK   69  A    between atoms: _159  and  _160
REMARK   70  A    between atoms: _159  and  _162
REMARK   71  A    between atoms: _162  and  _163
REMARK   72  A    between atoms: _166  and  _168
REMARK   73  A    between atoms: _168  and  _169
REMARK   74  A    between atoms: _168  and  _171
REMARK   75  A    between atoms: _171  and  _172
REMARK   76  A    between atoms: _175  and  _177
REMARK   77  A    between atoms: _177  and  _178
REMARK   78  A    between atoms: _177  and  _180
REMARK   79  A    between atoms: _180  and  _181
REMARK   80  A    between atoms: _181  and  _182
REMARK   81  A    between atoms: _184  and  _186
REMARK   82  A    between atoms: _186  and  _187
REMARK   83  A    between atoms: _186  and  _189
REMARK   84  A    between atoms: _189  and  _190
REMARK   85  A    between atoms: _190  and  _191
REMARK   86  A    between atoms: _191  and  _192
REMARK   87  A    between atoms: _201  and  _203
REMARK   88  A    between atoms: _203  and  _204
REMARK   89  A    between atoms: _203  and  _206
REMARK   90  A    between atoms: _206  and  _207
REMARK   91  A    between atoms: _207  and  _208
REMARK   92  A    between atoms: _213  and  _215
REMARK   93  A    between atoms: _215  and  _216
REMARK   94  A    between atoms: _215  and  _218
REMARK   95  A    between atoms: _218  and  _219
REMARK   96  A    between atoms: _224  and  _225
REMARK   97  A    between atoms: _227  and  _229
REMARK   98  A    between atoms: _229  and  _230
REMARK   99  A    between atoms: _229  and  _232
REMARK  100  A    between atoms: _232  and  _233
REMARK  101  A    between atoms: _233  and  _234
REMARK  102  A    between atoms: _236  and  _238
REMARK  103  A    between atoms: _238  and  _239
REMARK  104  A    between atoms: _238  and  _241
REMARK  105  A    between atoms: _241  and  _242
REMARK  106  A    between atoms: _242  and  _243
REMARK  107  A    between atoms: _243  and  _244
REMARK  108  A    between atoms: _253  and  _255
REMARK  109  A    between atoms: _255  and  _256
REMARK  110  A    between atoms: _255  and  _258
REMARK  111  A    between atoms: _258  and  _259
REMARK  112  A    between atoms: _262  and  _264
REMARK  113  A    between atoms: _264  and  _265
REMARK  114  A    between atoms: _267  and  _269
REMARK  115  A    between atoms: _269  and  _270
REMARK  116  A    between atoms: _269  and  _272
REMARK  117  A    between atoms: _272  and  _273
REMARK  118  A    between atoms: _273  and  _274
REMARK  119  A    between atoms: _277  and  _279
REMARK  120  A    between atoms: _279  and  _280
REMARK  121  A    between atoms: _282  and  _284
REMARK  122  A    between atoms: _284  and  _285
REMARK  123  A    between atoms: _284  and  _287
REMARK  124  A    between atoms: _287  and  _288
REMARK  125  A    between atoms: _294  and  _296
REMARK  126  A    between atoms: _296  and  _297
REMARK  127  A    between atoms: _296  and  _299
REMARK  128  A    between atoms: _299  and  _300
REMARK  129  A    between atoms: _300  and  _301
REMARK  130  A    between atoms: _301  and  _302
REMARK  131  A    between atoms: _302  and  _303
REMARK                            x       y       z     vdW  Elec       q    Type
REMARK                         _______ _______ _______ _____ _____    ______ ____
ROOT
ATOM      1  CA  ARG A   4      17.599  20.868   9.889  0.00  0.00    +0.149 C 
ENDROOT
BRANCH   1   2
ATOM      2  C   ARG A   4      19.102  20.721   9.642  0.00  0.00    +0.241 C 
ATOM      3  N   THR A   5      19.693  19.696  10.243  0.00  0.00    -0.295 N 
ATOM      4  H   THR A   5      19.115  19.055  10.824  0.00  0.00    +0.150 HD
ATOM      5  O   ARG A   4      19.699  21.507   8.918  0.00  0.00    -0.273 OA
BRANCH   3   6
ATOM      6  CA  THR A   5      21.132  19.433  10.119  0.00  0.00    +0.176 C 
BRANCH   6   7
ATOM      7  C   THR A   5      21.537  19.022   8.695  0.00  0.00    +0.243 C 
ATOM      8  O   THR A   5      22.570  19.459   8.172  0.00  0.00    -0.273 OA
ATOM      9  N   GLY A   6      20.720  18.186   8.066  0.00  0.00    -0.295 N 
ATOM     10  H   GLY A   6      19.822  17.915   8.515  0.00  0.00    +0.150 HD
BRANCH   9  11
ATOM     11  CA  GLY A   6      21.059  17.642   6.760  0.00  0.00    +0.176 C 
BRANCH  11  12
ATOM     12  C   GLY A   6      21.171  18.682   5.658  0.00  0.00    +0.243 C 
ATOM     13  O   GLY A   6      20.357  19.609   5.583  0.00  0.00    -0.273 OA
ATOM     14  N   GLU A   7      22.180  18.525   4.801  0.00  0.00    -0.297 N 
ATOM     15  H   GLU A   7      22.854  17.748   4.955  0.00  0.00    +0.150 HD
BRANCH  14  16
ATOM     16  CA  GLU A   7      22.371  19.408   3.653  0.00  0.00    +0.149 C 
BRANCH  16  17
ATOM     17  C   GLU A   7      21.753  18.836   2.381  0.00  0.00    +0.241 C 
ATOM     18  N   GLY A   8      21.666  17.515   2.309  0.00  0.00    -0.295 N 
ATOM     19  H   GLY A   8      22.038  16.939   3.091  0.00  0.00    +0.150 HD
ATOM     20  O   GLU A   7      21.392  19.574   1.472  0.00  0.00    -0.273 OA
BRANCH  18  21
ATOM     21  CA  GLY A   8      21.065  16.852   1.166  0.00  0.00    +0.176 C 
BRANCH  21  22
ATOM     22  C   GLY A   8      20.388  15.579   1.618  0.00  0.00    +0.243 C 
ATOM     23  O   GLY A   8      20.768  14.990   2.635  0.00  0.00    -0.273 OA
ATOM     24  N   PHE A   9      19.394  15.140   0.851  0.00  0.00    -0.298 N 
ATOM     25  H   PHE A   9      19.202  15.614  -0.055  0.00  0.00    +0.150 HD
BRANCH  24  26
ATOM     26  CA  PHE A   9      18.570  14.011   1.253  0.00  0.00    +0.141 C 
BRANCH  26  27
ATOM     27  C   PHE A   9      18.493  12.962   0.174  0.00  0.00    +0.227 C 
ATOM     28  O   PHE A   9      18.184  13.260  -0.978  0.00  0.00    -0.286 OA
ENDBRANCH  26  27
BRANCH  26  29
ATOM     29  CB  PHE A   9      17.168  14.498   1.640  0.00  0.00    +0.054 C 
BRANCH  29  30
ATOM     30  CG  PHE A   9      17.191  15.431   2.813  0.00  0.00    -0.020 A 
ATOM     31  CD2 PHE A   9      16.925  14.965   4.089  0.00  0.00    -0.004 A 
ATOM     32  CE2 PHE A   9      16.989  15.819   5.179  0.00  0.00    -0.000 A 
ATOM     33  CZ  PHE A   9      17.342  17.146   4.999  0.00  0.00    -0.000 A 
ATOM     34  CE1 PHE A   9      17.633  17.613   3.735  0.00  0.00    -0.000 A 
ATOM     35  CD1 PHE A   9      17.563  16.752   2.646  0.00  0.00    -0.004 A 
ENDBRANCH  29  30
ENDBRANCH  26  29
ENDBRANCH  24  26
ENDBRANCH  21  22
ENDBRANCH  18  21
ENDBRANCH  16  17
BRANCH  16  36
ATOM     36  CB  GLU A   7      23.857  19.652   3.404  0.00  0.00    +0.041 C 
BRANCH  36  37
ATOM     37  CG  GLU A   7      24.575  20.397   4.501  0.00  0.00    +0.116 C 
BRANCH  37  38
ATOM     38  CD  GLU A   7      26.071  20.448   4.247  0.00  0.00    +0.365 C 
ATOM     39  OE2 GLU A   7      26.789  19.554   4.741  0.00  0.00    -0.246 OA
ATOM     40  OE1 GLU A   7      26.526  21.372   3.539  0.00  0.00    -0.246 OA
ENDBRANCH  37  38
ENDBRANCH  36  37
ENDBRANCH  16  36
ENDBRANCH  14  16
ENDBRANCH  11  12
ENDBRANCH   9  11
ENDBRANCH   6   7
BRANCH   6  41
ATOM     41  CB  THR A   5      21.571  18.340  11.116  0.00  0.00    +0.137 C 
ATOM     42  CG2 THR A   5      23.080  18.140  11.071  0.00  0.00    +0.034 C 
BRANCH  41  43
ATOM     43  OG1 THR A   5      21.176  18.716  12.447  0.00  0.00    -0.382 OA
ATOM     44  HG1 THR A   5      20.192  18.818  12.481  0.00  0.00    +0.210 HD
ENDBRANCH  41  43
ENDBRANCH   6  41
ENDBRANCH   3   6
ENDBRANCH   1   2
BRANCH   1  46
ATOM     45  C   MET A   3      16.900  18.814   8.836  0.00  0.00    +0.241 C 
ATOM     46  N   ARG A   4      16.963  19.557   9.936  0.00  0.00    -0.297 N 
ATOM     47  H   ARG A   4      16.560  19.204  10.828  0.00  0.00    +0.150 HD
ATOM     48  O   MET A   3      17.304  19.222   7.746  0.00  0.00    -0.273 OA
BRANCH  45  49
ATOM     49  CA  MET A   3      16.312  17.403   8.981  0.00  0.00    +0.149 C 
BRANCH  49  51
ATOM     50  C   TYR A   2      17.961  16.455  10.484  0.00  0.00    +0.241 C 
ATOM     51  N   MET A   3      16.699  16.801  10.255  0.00  0.00    -0.297 N 
ATOM     52  H   MET A   3      15.980  16.642  10.989  0.00  0.00    +0.150 HD
ATOM     53  O   TYR A   2      18.843  16.564   9.631  0.00  0.00    -0.273 OA
BRANCH  50  54
ATOM     54  CA  TYR A   2      18.296  15.936  11.886  0.00  0.00    +0.153 C 
BRANCH  54  56
ATOM     55  C   GLN A   1      17.615  17.829  13.187  0.00  0.00    +0.238 C 
ATOM     56  N   TYR A   2      17.459  16.537  12.923  0.00  0.00    -0.297 N 
ATOM     57  H   TYR A   2      16.759  15.967  13.441  0.00  0.00    +0.150 HD
ATOM     58  O   GLN A   1      18.422  18.525  12.567  0.00  0.00    -0.274 OA
BRANCH  55  59
ATOM     59  CA  GLN A   1      16.753  18.431  14.299  0.00  0.00    +0.145 C 
BRANCH  59  60
ATOM     60  N   GLN A   1      15.339  18.067  14.171  0.00  0.00    -0.238 NA
ATOM     61  H   GLN A   1      14.871  17.556  14.947  0.00  0.00    +0.142 HD
ENDBRANCH  59  60
BRANCH  59  62
ATOM     62  CB  GLN A   1      17.322  18.057  15.680  0.00  0.00    +0.036 C 
BRANCH  62  63
ATOM     63  CG  GLN A   1      18.821  18.370  15.833  0.00  0.00    +0.087 C 
BRANCH  63  64
ATOM     64  CD  GLN A   1      19.321  18.353  17.284  0.00  0.00    +0.219 C 
ATOM     65  OE1 GLN A   1      18.630  18.796  18.203  0.00  0.00    -0.275 OA
ATOM     66  NE2 GLN A   1      20.535  17.850  17.484  0.00  0.00    -0.329 N 
ATOM     67 HE21 GLN A   1      20.934  17.820  18.444  0.00  0.00    +0.145 HD
ATOM     68 HE22 GLN A   1      21.086  17.486  16.680  0.00  0.00    +0.145 HD
ENDBRANCH  63  64
ENDBRANCH  62  63
ENDBRANCH  59  62
ENDBRANCH  55  59
ENDBRANCH  54  56
BRANCH  54  69
ATOM     69  CB  TYR A   2      18.341  14.399  11.967  0.00  0.00    +0.055 C 
BRANCH  69  70
ATOM     70  CG  TYR A   2      17.129  13.635  11.473  0.00  0.00    -0.020 A 
ATOM     71  CD2 TYR A   2      16.396  12.833  12.341  0.00  0.00    -0.001 A 
ATOM     72  CE2 TYR A   2      15.302  12.108  11.897  0.00  0.00    +0.036 A 
ATOM     73  CZ  TYR A   2      14.933  12.171  10.570  0.00  0.00    +0.134 A 
ATOM     74  CE1 TYR A   2      15.651  12.948   9.682  0.00  0.00    +0.036 A 
ATOM     75  CD1 TYR A   2      16.750  13.666  10.133  0.00  0.00    -0.001 A 
BRANCH  73  76
ATOM     76  OH  TYR A   2      13.842  11.452  10.132  0.00  0.00    -0.506 OA
ATOM     77  HH  TYR A   2      13.168  12.073   9.758  0.00  0.00    +0.292 HD
ENDBRANCH  73  76
ENDBRANCH  69  70
ENDBRANCH  54  69
ENDBRANCH  50  54
ENDBRANCH  49  51
BRANCH  49  78
ATOM     78  CB  MET A   3      14.787  17.409   8.813  0.00  0.00    +0.041 C 
BRANCH  78  79
ATOM     79  CG  MET A   3      14.202  16.055   8.391  0.00  0.00    +0.060 C 
BRANCH  79  80
ATOM     80  SD  MET A   3      12.418  16.127   8.104  0.00  0.00    -0.139 S 
ATOM     81  CE  MET A   3      12.330  17.551   7.059  0.00  0.00    +0.069 C 
ENDBRANCH  79  80
ENDBRANCH  78  79
ENDBRANCH  49  78
ENDBRANCH  45  49
ENDBRANCH   1  46
BRANCH   1  82
ATOM     82  CB  ARG A   4      17.335  21.662  11.171  0.00  0.00    +0.033 C 
BRANCH  82  83
ATOM     83  CG  ARG A   4      15.897  22.147  11.295  0.00  0.00    +0.045 C 
BRANCH  83  84
ATOM     84  CD  ARG A   4      15.772  23.154  12.435  0.00  0.00    +0.174 C 
BRANCH  84  85
ATOM     85  NE  ARG A   4      16.110  22.558  13.720  0.00  0.00    -0.265 N 
ATOM     86  CZ  ARG A   4      15.219  22.055  14.564  0.00  0.00    +0.342 C 
ATOM     87  NH2 ARG A   4      15.621  21.528  15.713  0.00  0.00    -0.292 N 
ATOM     88 HH21 ARG A   4      14.924  21.133  16.376  0.00  0.00    +0.255 HD
ATOM     89 HH22 ARG A   4      16.633  21.510  15.951  0.00  0.00    +0.255 HD
ATOM     90  NH1 ARG A   4      13.922  22.084  14.258  0.00  0.00    -0.292 N 
ATOM     91 HH11 ARG A   4      13.223  21.690  14.919  0.00  0.00    +0.255 HD
ATOM     92 HH12 ARG A   4      13.609  22.501  13.358  0.00  0.00    +0.255 HD
ATOM     93  HE  ARG A   4      17.113  22.525  13.993  0.00  0.00    +0.259 HD
ENDBRANCH  84  85
ENDBRANCH  83  84
ENDBRANCH  82  83
ENDBRANCH   1  82
TORSDOF 38
REMARK  Name = ../refined-set-2016/4dsu/4dsu_pocket.pdb
REMARK  131 active torsions:
REMARK  status: ('A' for Active; 'I' for Inactive)
REMARK    1  A    between atoms: _1  and  _3
REMARK    2  A    between atoms: _3  and  _4
REMARK    3  A    between atoms: _3  and  _6
REMARK    4  A    between atoms: _6  and  _7
REMARK    5  A    between atoms: _7  and  _8
REMARK    6  A    between atoms: _11  and  _13
REMARK    7  A    between atoms: _13  and  _14
REMARK    8  A    between atoms: _13  and  _16
REMARK    9  A    between atoms: _16  and  _17
REMARK   10  A    between atoms: _22  and  _23
REMARK   11  A    between atoms: _25  and  _27
REMARK   12  A    between atoms: _27  and  _28
REMARK   13  A    between atoms: _27  and  _30
REMARK   14  A    between atoms: _30  and  _31
REMARK   15  A    between atoms: _31  and  _32
REMARK   16  A    between atoms: _32  and  _33
REMARK   17  A    between atoms: _33  and  _34
REMARK   18  A    between atoms: _38  and  _40
REMARK   19  A    between atoms: _40  and  _41
REMARK   20  A    between atoms: _40  and  _43
REMARK   21  A    between atoms: _43  and  _44
REMARK   22  A    between atoms: _47  and  _49
REMARK   23  A    between atoms: _49  and  _50
REMARK   24  A    between atoms: _49  and  _52
REMARK   25  A    between atoms: _55  and  _57
REMARK   26  A    between atoms: _57  and  _58
REMARK   27  A    between atoms: _57  and  _60
REMARK   28  A    between atoms: _63  and  _65
REMARK   29  A    between atoms: _65  and  _66
REMARK   30  A    between atoms: _65  and  _68
REMARK   31  A    between atoms: _68  and  _69
REMARK   32  A    between atoms: _69  and  _70
REMARK   33  A    between atoms: _73  and  _75
REMARK   34  A    between atoms: _75  and  _76
REMARK   35  A    between atoms: _75  and  _78
REMARK   36  A    between atoms: _78  and  _79
REMARK   37  A    between atoms: _82  and  _84
REMARK   38  A    between atoms: _84  and  _85
REMARK   39  A    between atoms: _84  and  _87
REMARK   40  A    between atoms: _87  and  _88
REMARK   41  A    between atoms: _90  and  _92
REMARK   42  A    between atoms: _92  and  _93
REMARK   43  A    between atoms: _92  and  _95
REMARK   44  A    between atoms: _95  and  _96
REMARK   45  A    between atoms: _101  and  _102
REMARK   46  A    between atoms: _104  and  _106
REMARK   47  A    between atoms: _106  and  _107
REMARK   48  A    between atoms: _106  and  _109
REMARK   49  A    between atoms: _109  and  _110
REMARK   50  A    between atoms: _110  and  _111
REMARK   51  A    between atoms: _111  and  _112
REMARK   52  A    between atoms: _121  and  _123
REMARK   53  A    between atoms: _123  and  _124
REMARK   54  A    between atoms: _123  and  _126
REMARK   55  A    between atoms: _126  and  _127
REMARK   56  A    between atoms: _130  and  _132
REMARK   57  A    between atoms: _132  and  _133
REMARK   58  A    between atoms: _132  and  _135
REMARK   59  A    between atoms: _135  and  _136
REMARK   60  A    between atoms: _139  and  _141
REMARK   61  A    between atoms: _141  and  _142
REMARK   62  A    between atoms: _141  and  _144
REMARK   63  A    between atoms: _144  and  _145
REMARK   64  A    between atoms: _148  and  _150
REMARK   65  A    between atoms: _150  and  _151
REMARK   66  A    between atoms: _150  and  _153
REMARK   67  A    between atoms: _153  and  _154
REMARK   68  A    between atoms: _157  and  _159
REMARK   69  A    between atoms: _159  and  _160
REMARK   70  A    between atoms: _159  and  _162
REMARK   71  A    between atoms: _162  and  _163
REMARK   72  A    between atoms: _166  and  _168
REMARK   73  A    between atoms: _168  and  _169
REMARK   74  A    between atoms: _168  and  _171
REMARK   75  A    between atoms: _171  and  _172
REMARK   76  A    between atoms: _175  and  _177
REMARK   77  A    between atoms: _177  and  _178
REMARK   78  A    between atoms: _177  and  _180
REMARK   79  A    between atoms: _180  and  _181
REMARK   80  A    between atoms: _181  and  _182
REMARK   81  A    between atoms: _184  and  _186
REMARK   82  A    between atoms: _186  and  _187
REMARK   83  A    between atoms: _186  and  _189
REMARK   84  A    between atoms: _189  and  _190
REMARK   85  A    between atoms: _190  and  _191
REMARK   86  A    between atoms: _191  and  _192
REMARK   87  A    between atoms: _201  and  _203
REMARK   88  A    between atoms: _203  and  _204
REMARK   89  A    between atoms: _203  and  _206
REMARK   90  A    between atoms: _206  and  _207
REMARK   91  A    between atoms: _207  and  _208
REMARK   92  A    between atoms: _213  and  _215
REMARK   93  A    between atoms: _215  and  _216
REMARK   94  A    between atoms: _215  and  _218
REMARK   95  A    between atoms: _218  and  _219
REMARK   96  A    between atoms: _224  and  _225
REMARK   97  A    between atoms: _227  and  _229
REMARK   98  A    between atoms: _229  and  _230
REMARK   99  A    between atoms: _229  and  _232
REMARK  100  A    between atoms: _232  and  _233
REMARK  101  A    between atoms: _233  and  _234
REMARK  102  A    between atoms: _236  and  _238
REMARK  103  A    between atoms: _238  and  _239
REMARK  104  A    between atoms: _238  and  _241
REMARK  105  A    between atoms: _241  and  _242
REMARK  106  A    between atoms: _242  and  _243
REMARK  107  A    between atoms: _243  and  _244
REMARK  108  A    between atoms: _253  and  _255
REMARK  109  A    between atoms: _255  and  _256
REMARK  110  A    between atoms: _255  and  _258
REMARK  111  A    between atoms: _258  and  _259
REMARK  112  A    between atoms: _262  and  _264
REMARK  113  A    between atoms: _264  and  _265
REMARK  114  A    between atoms: _267  and  _269
REMARK  115  A    between atoms: _269  and  _270
REMARK  116  A    between atoms: _269  and  _272
REMARK  117  A    between atoms: _272  and  _273
REMARK  118  A    between atoms: _273  and  _274
REMARK  119  A    between atoms: _277  and  _279
REMARK  120  A    between atoms: _279  and  _280
REMARK  121  A    between atoms: _282  and  _284
REMARK  122  A    between atoms: _284  and  _285
REMARK  123  A    between atoms: _284  and  _287
REMARK  124  A    between atoms: _287  and  _288
REMARK  125  A    between atoms: _294  and  _296
REMARK  126  A    between atoms: _296  and  _297
REMARK  127  A    between atoms: _296  and  _299
REMARK  128  A    between atoms: _299  and  _300
REMARK  129  A    between atoms: _300  and  _301
REMARK  130  A    between atoms: _301  and  _302
REMARK  131  A    between atoms: _302  and  _303
REMARK                            x       y       z     vdW  Elec       q    Type
REMARK                         _______ _______ _______ _____ _____    ______ ____
ROOT
ATOM      1  CG  LYS A   1      15.507  21.500   6.018  0.00  0.00    -0.000 C 
ENDROOT
BRANCH   1   2
ATOM      2  CB  LYS A   1      14.961  22.790   5.390  0.00  0.00    +0.025 C 
BRANCH   2   3
ATOM      3  CA  LYS A   1      14.049  23.569   6.342  0.00  0.00    +0.133 C 
BRANCH   3   4
ATOM      4  N   LYS A   1      12.917  22.742   6.746  0.00  0.00    -0.239 NA
ATOM      5  H   LYS A   1      12.492  22.083   6.062  0.00  0.00    +0.142 HD
ENDBRANCH   3   4
BRANCH   3   6
ATOM      6  C   LYS A   1      13.576  24.896   5.739  0.00  0.00    +0.224 C 
ATOM      7  O   LYS A   1      14.384  25.737   5.344  0.00  0.00    -0.287 OA
ENDBRANCH   3   6
ENDBRANCH   2   3
ENDBRANCH   1   2
BRANCH   1   8
ATOM      8  CD  LYS A   1      16.428  20.733   5.082  0.00  0.00    -0.024 C 
BRANCH   8   9
ATOM      9  CE  LYS A   1      17.754  21.444   4.901  0.00  0.00    -0.086 C 
BRANCH   9  10
ATOM     10  NZ  LYS A   1      18.499  21.526   6.184  0.00  0.00    +0.380 N 
ATOM     11  HZ1 LYS A   1      17.932  22.052   6.880  0.00  0.00    -0.089 HD
ATOM     12  HZ2 LYS A   1      18.682  20.566   6.539  0.00  0.00    -0.089 HD
ATOM     13  HZ3 LYS A   1      19.402  22.018   6.028  0.00  0.00    -0.089 HD
ENDBRANCH   9  10
ENDBRANCH   8   9
ENDBRANCH   1   8
TORSDOF 7
REMARK  Name = ../refined-set-2016/4dsu/4dsu_pocket.pdb
REMARK  131 active torsions:
REMARK  status: ('A' for Active; 'I' for Inactive)
REMARK    1  A    between atoms: _1  and  _3
REMARK    2  A    between atoms: _3  and  _4
REMARK    3  A    between atoms: _3  and  _6
REMARK    4  A    between atoms: _6  and  _7
REMARK    5  A    between atoms: _7  and  _8
REMARK    6  A    between atoms: _11  and  _13
REMARK    7  A    between atoms: _13  and  _14
REMARK    8  A    between atoms: _13  and  _16
REMARK    9  A    between atoms: _16  and  _17
REMARK   10  A    between atoms: _22  and  _23
REMARK   11  A    between atoms: _25  and  _27
REMARK   12  A    between atoms: _27  and  _28
REMARK   13  A    between atoms: _27  and  _30
REMARK   14  A    between atoms: _30  and  _31
REMARK   15  A    between atoms: _31  and  _32
REMARK   16  A    between atoms: _32  and  _33
REMARK   17  A    between atoms: _33  and  _34
REMARK   18  A    between atoms: _38  and  _40
REMARK   19  A    between atoms: _40  and  _41
REMARK   20  A    between atoms: _40  and  _43
REMARK   21  A    between atoms: _43  and  _44
REMARK   22  A    between atoms: _47  and  _49
REMARK   23  A    between atoms: _49  and  _50
REMARK   24  A    between atoms: _49  and  _52
REMARK   25  A    between atoms: _55  and  _57
REMARK   26  A    between atoms: _57  and  _58
REMARK   27  A    between atoms: _57  and  _60
REMARK   28  A    between atoms: _63  and  _65
REMARK   29  A    between atoms: _65  and  _66
REMARK   30  A    between atoms: _65  and  _68
REMARK   31  A    between atoms: _68  and  _69
REMARK   32  A    between atoms: _69  and  _70
REMARK   33  A    between atoms: _73  and  _75
REMARK   34  A    between atoms: _75  and  _76
REMARK   35  A    between atoms: _75  and  _78
REMARK   36  A    between atoms: _78  and  _79
REMARK   37  A    between atoms: _82  and  _84
REMARK   38  A    between atoms: _84  and  _85
REMARK   39  A    between atoms: _84  and  _87
REMARK   40  A    between atoms: _87  and  _88
REMARK   41  A    between atoms: _90  and  _92
REMARK   42  A    between atoms: _92  and  _93
REMARK   43  A    between atoms: _92  and  _95
REMARK   44  A    between atoms: _95  and  _96
REMARK   45  A    between atoms: _101  and  _102
REMARK   46  A    between atoms: _104  and  _106
REMARK   47  A    between atoms: _106  and  _107
REMARK   48  A    between atoms: _106  and  _109
REMARK   49  A    between atoms: _109  and  _110
REMARK   50  A    between atoms: _110  and  _111
REMARK   51  A    between atoms: _111  and  _112
REMARK   52  A    between atoms: _121  and  _123
REMARK   53  A    between atoms: _123  and  _124
REMARK   54  A    between atoms: _123  and  _126
REMARK   55  A    between atoms: _126  and  _127
REMARK   56  A    between atoms: _130  and  _132
REMARK   57  A    between atoms: _132  and  _133
REMARK   58  A    between atoms: _132  and  _135
REMARK   59  A    between atoms: _135  and  _136
REMARK   60  A    between atoms: _139  and  _141
REMARK   61  A    between atoms: _141  and  _142
REMARK   62  A    between atoms: _141  and  _144
REMARK   63  A    between atoms: _144  and  _145
REMARK   64  A    between atoms: _148  and  _150
REMARK   65  A    between atoms: _150  and  _151
REMARK   66  A    between atoms: _150  and  _153
REMARK   67  A    between atoms: _153  and  _154
REMARK   68  A    between atoms: _157  and  _159
REMARK   69  A    between atoms: _159  and  _160
REMARK   70  A    between atoms: _159  and  _162
REMARK   71  A    between atoms: _162  and  _163
REMARK   72  A    between atoms: _166  and  _168
REMARK   73  A    between atoms: _168  and  _169
REMARK   74  A    between atoms: _168  and  _171
REMARK   75  A    between atoms: _171  and  _172
REMARK   76  A    between atoms: _175  and  _177
REMARK   77  A    between atoms: _177  and  _178
REMARK   78  A    between atoms: _177  and  _180
REMARK   79  A    between atoms: _180  and  _181
REMARK   80  A    between atoms: _181  and  _182
REMARK   81  A    between atoms: _184  and  _186
REMARK   82  A    between atoms: _186  and  _187
REMARK   83  A    between atoms: _186  and  _189
REMARK   84  A    between atoms: _189  and  _190
REMARK   85  A    between atoms: _190  and  _191
REMARK   86  A    between atoms: _191  and  _192
REMARK   87  A    between atoms: _201  and  _203
REMARK   88  A    between atoms: _203  and  _204
REMARK   89  A    between atoms: _203  and  _206
REMARK   90  A    between atoms: _206  and  _207
REMARK   91  A    between atoms: _207  and  _208
REMARK   92  A    between atoms: _213  and  _215
REMARK   93  A    between atoms: _215  and  _216
REMARK   94  A    between atoms: _215  and  _218
REMARK   95  A    between atoms: _218  and  _219
REMARK   96  A    between atoms: _224  and  _225
REMARK   97  A    between atoms: _227  and  _229
REMARK   98  A    between atoms: _229  and  _230
REMARK   99  A    between atoms: _229  and  _232
REMARK  100  A    between atoms: _232  and  _233
REMARK  101  A    between atoms: _233  and  _234
REMARK  102  A    between atoms: _236  and  _238
REMARK  103  A    between atoms: _238  and  _239
REMARK  104  A    between atoms: _238  and  _241
REMARK  105  A    between atoms: _241  and  _242
REMARK  106  A    between atoms: _242  and  _243
REMARK  107  A    between atoms: _243  and  _244
REMARK  108  A    between atoms: _253  and  _255
REMARK  109  A    between atoms: _255  and  _256
REMARK  110  A    between atoms: _255  and  _258
REMARK  111  A    between atoms: _258  and  _259
REMARK  112  A    between atoms: _262  and  _264
REMARK  113  A    between atoms: _264  and  _265
REMARK  114  A    between atoms: _267  and  _269
REMARK  115  A    between atoms: _269  and  _270
REMARK  116  A    between atoms: _269  and  _272
REMARK  117  A    between atoms: _272  and  _273
REMARK  118  A    between atoms: _273  and  _274
REMARK  119  A    between atoms: _277  and  _279
REMARK  120  A    between atoms: _279  and  _280
REMARK  121  A    between atoms: _282  and  _284
REMARK  122  A    between atoms: _284  and  _285
REMARK  123  A    between atoms: _284  and  _287
REMARK  124  A    between atoms: _287  and  _288
REMARK  125  A    between atoms: _294  and  _296
REMARK  126  A    between atoms: _296  and  _297
REMARK  127  A    between atoms: _296  and  _299
REMARK  128  A    between atoms: _299  and  _300
REMARK  129  A    between atoms: _300  and  _301
REMARK  130  A    between atoms: _301  and  _302
REMARK  131  A    between atoms: _302  and  _303
REMARK                            x       y       z     vdW  Elec       q    Type
REMARK                         _______ _______ _______ _____ _____    ______ ____
ROOT
ATOM      1  O   HOH     1      23.643  15.217  14.778  0.00  0.00    +0.000 OA
ENDROOT
TORSDOF 0
REMARK  Name = ../refined-set-2016/4dsu/4dsu_pocket.pdb
REMARK  131 active torsions:
REMARK  status: ('A' for Active; 'I' for Inactive)
REMARK    1  A    between atoms: _1  and  _3
REMARK    2  A    between atoms: _3  and  _4
REMARK    3  A    between atoms: _3  and  _6
REMARK    4  A    between atoms: _6  and  _7
REMARK    5  A    between atoms: _7  and  _8
REMARK    6  A    between atoms: _11  and  _13
REMARK    7  A    between atoms: _13  and  _14
REMARK    8  A    between atoms: _13  and  _16
REMARK    9  A    between atoms: _16  and  _17
REMARK   10  A    between atoms: _22  and  _23
REMARK   11  A    between atoms: _25  and  _27
REMARK   12  A    between atoms: _27  and  _28
REMARK   13  A    between atoms: _27  and  _30
REMARK   14  A    between atoms: _30  and  _31
REMARK   15  A    between atoms: _31  and  _32
REMARK   16  A    between atoms: _32  and  _33
REMARK   17  A    between atoms: _33  and  _34
REMARK   18  A    between atoms: _38  and  _40
REMARK   19  A    between atoms: _40  and  _41
REMARK   20  A    between atoms: _40  and  _43
REMARK   21  A    between atoms: _43  and  _44
REMARK   22  A    between atoms: _47  and  _49
REMARK   23  A    between atoms: _49  and  _50
REMARK   24  A    between atoms: _49  and  _52
REMARK   25  A    between atoms: _55  and  _57
REMARK   26  A    between atoms: _57  and  _58
REMARK   27  A    between atoms: _57  and  _60
REMARK   28  A    between atoms: _63  and  _65
REMARK   29  A    between atoms: _65  and  _66
REMARK   30  A    between atoms: _65  and  _68
REMARK   31  A    between atoms: _68  and  _69
REMARK   32  A    between atoms: _69  and  _70
REMARK   33  A    between atoms: _73  and  _75
REMARK   34  A    between atoms: _75  and  _76
REMARK   35  A    between atoms: _75  and  _78
REMARK   36  A    between atoms: _78  and  _79
REMARK   37  A    between atoms: _82  and  _84
REMARK   38  A    between atoms: _84  and  _85
REMARK   39  A    between atoms: _84  and  _87
REMARK   40  A    between atoms: _87  and  _88
REMARK   41  A    between atoms: _90  and  _92
REMARK   42  A    between atoms: _92  and  _93
REMARK   43  A    between atoms: _92  and  _95
REMARK   44  A    between atoms: _95  and  _96
REMARK   45  A    between atoms: _101  and  _102
REMARK   46  A    between atoms: _104  and  _106
REMARK   47  A    between atoms: _106  and  _107
REMARK   48  A    between atoms: _106  and  _109
REMARK   49  A    between atoms: _109  and  _110
REMARK   50  A    between atoms: _110  and  _111
REMARK   51  A    between atoms: _111  and  _112
REMARK   52  A    between atoms: _121  and  _123
REMARK   53  A    between atoms: _123  and  _124
REMARK   54  A    between atoms: _123  and  _126
REMARK   55  A    between atoms: _126  and  _127
REMARK   56  A    between atoms: _130  and  _132
REMARK   57  A    between atoms: _132  and  _133
REMARK   58  A    between atoms: _132  and  _135
REMARK   59  A    between atoms: _135  and  _136
REMARK   60  A    between atoms: _139  and  _141
REMARK   61  A    between atoms: _141  and  _142
REMARK   62  A    between atoms: _141  and  _144
REMARK   63  A    between atoms: _144  and  _145
REMARK   64  A    between atoms: _148  and  _150
REMARK   65  A    between atoms: _150  and  _151
REMARK   66  A    between atoms: _150  and  _153
REMARK   67  A    between atoms: _153  and  _154
REMARK   68  A    between atoms: _157  and  _159
REMARK   69  A    between atoms: _159  and  _160
REMARK   70  A    between atoms: _159  and  _162
REMARK   71  A    between atoms: _162  and  _163
REMARK   72  A    between atoms: _166  and  _168
REMARK   73  A    between atoms: _168  and  _169
REMARK   74  A    between atoms: _168  and  _171
REMARK   75  A    between atoms: _171  and  _172
REMARK   76  A    between atoms: _175  and  _177
REMARK   77  A    between atoms: _177  and  _178
REMARK   78  A    between atoms: _177  and  _180
REMARK   79  A    between atoms: _180  and  _181
REMARK   80  A    between atoms: _181  and  _182
REMARK   81  A    between atoms: _184  and  _186
REMARK   82  A    between atoms: _186  and  _187
REMARK   83  A    between atoms: _186  and  _189
REMARK   84  A    between atoms: _189  and  _190
REMARK   85  A    between atoms: _190  and  _191
REMARK   86  A    between atoms: _191  and  _192
REMARK   87  A    between atoms: _201  and  _203
REMARK   88  A    between atoms: _203  and  _204
REMARK   89  A    between atoms: _203  and  _206
REMARK   90  A    between atoms: _206  and  _207
REMARK   91  A    between atoms: _207  and  _208
REMARK   92  A    between atoms: _213  and  _215
REMARK   93  A    between atoms: _215  and  _216
REMARK   94  A    between atoms: _215  and  _218
REMARK   95  A    between atoms: _218  and  _219
REMARK   96  A    between atoms: _224  and  _225
REMARK   97  A    between atoms: _227  and  _229
REMARK   98  A    between atoms: _229  and  _230
REMARK   99  A    between atoms: _229  and  _232
REMARK  100  A    between atoms: _232  and  _233
REMARK  101  A    between atoms: _233  and  _234
REMARK  102  A    between atoms: _236  and  _238
REMARK  103  A    between atoms: _238  and  _239
REMARK  104  A    between atoms: _238  and  _241
REMARK  105  A    between atoms: _241  and  _242
REMARK  106  A    between atoms: _242  and  _243
REMARK  107  A    between atoms: _243  and  _244
REMARK  108  A    between atoms: _253  and  _255
REMARK  109  A    between atoms: _255  and  _256
REMARK  110  A    between atoms: _255  and  _258
REMARK  111  A    between atoms: _258  and  _259
REMARK  112  A    between atoms: _262  and  _264
REMARK  113  A    between atoms: _264  and  _265
REMARK  114  A    between atoms: _267  and  _269
REMARK  115  A    between atoms: _269  and  _270
REMARK  116  A    between atoms: _269  and  _272
REMARK  117  A    between atoms: _272  and  _273
REMARK  118  A    between atoms: _273  and  _274
REMARK  119  A    between atoms: _277  and  _279
REMARK  120  A    between atoms: _279  and  _280
REMARK  121  A    between atoms: _282  and  _284
REMARK  122  A    between atoms: _284  and  _285
REMARK  123  A    between atoms: _284  and  _287
REMARK  124  A    between atoms: _287  and  _288
REMARK  125  A    between atoms: _294  and  _296
REMARK  126  A    between atoms: _296  and  _297
REMARK  127  A    between atoms: _296  and  _299
REMARK  128  A    between atoms: _299  and  _300
REMARK  129  A    between atoms: _300  and  _301
REMARK  130  A    between atoms: _301  and  _302
REMARK  131  A    between atoms: _302  and  _303
REMARK                            x       y       z     vdW  Elec       q    Type
REMARK                         _______ _______ _______ _____ _____    ______ ____
ROOT
ATOM      1  O   HOH     1      29.369  12.735  13.636  0.00  0.00    +0.000 OA
ENDROOT
TORSDOF 0
