REMARK  Name = ../refined-set-2016/4jfs/4jfs_pocket.pdb
REMARK  157 active torsions:
REMARK  status: ('A' for Active; 'I' for Inactive)
REMARK    1  A    between atoms: _1  and  _3
REMARK    2  A    between atoms: _3  and  _4
REMARK    3  A    between atoms: _3  and  _6
REMARK    4  A    between atoms: _6  and  _7
REMARK    5  A    between atoms: _13  and  _15
REMARK    6  A    between atoms: _15  and  _16
REMARK    7  A    between atoms: _15  and  _18
REMARK    8  A    between atoms: _18  and  _19
REMARK    9  A    between atoms: _22  and  _24
REMARK   10  A    between atoms: _24  and  _25
REMARK   11  A    between atoms: _24  and  _27
REMARK   12  A    between atoms: _27  and  _28
REMARK   13  A    between atoms: _33  and  _35
REMARK   14  A    between atoms: _35  and  _36
REMARK   15  A    between atoms: _35  and  _38
REMARK   16  A    between atoms: _38  and  _39
REMARK   17  A    between atoms: _44  and  _45
REMARK   18  A    between atoms: _47  and  _49
REMARK   19  A    between atoms: _49  and  _50
REMARK   20  A    between atoms: _53  and  _55
REMARK   21  A    between atoms: _55  and  _56
REMARK   22  A    between atoms: _59  and  _61
REMARK   23  A    between atoms: _61  and  _62
REMARK   24  A    between atoms: _61  and  _64
REMARK   25  A    between atoms: _64  and  _65
REMARK   26  A    between atoms: _65  and  _66
REMARK   27  A    between atoms: _69  and  _71
REMARK   28  A    between atoms: _71  and  _72
REMARK   29  A    between atoms: _71  and  _74
REMARK   30  A    between atoms: _74  and  _75
REMARK   31  A    between atoms: _85  and  _87
REMARK   32  A    between atoms: _87  and  _88
REMARK   33  A    between atoms: _87  and  _90
REMARK   34  A    between atoms: _90  and  _91
REMARK   35  A    between atoms: _101  and  _103
REMARK   36  A    between atoms: _103  and  _104
REMARK   37  A    between atoms: _103  and  _106
REMARK   38  A    between atoms: _106  and  _107
REMARK   39  A    between atoms: _107  and  _108
REMARK   40  A    between atoms: _108  and  _109
REMARK   41  A    between atoms: _109  and  _110
REMARK   42  A    between atoms: _114  and  _116
REMARK   43  A    between atoms: _116  and  _117
REMARK   44  A    between atoms: _116  and  _119
REMARK   45  A    between atoms: _119  and  _120
REMARK   46  A    between atoms: _123  and  _125
REMARK   47  A    between atoms: _125  and  _126
REMARK   48  A    between atoms: _125  and  _128
REMARK   49  A    between atoms: _128  and  _129
REMARK   50  A    between atoms: _134  and  _136
REMARK   51  A    between atoms: _136  and  _137
REMARK   52  A    between atoms: _136  and  _139
REMARK   53  A    between atoms: _139  and  _140
REMARK   54  A    between atoms: _145  and  _147
REMARK   55  A    between atoms: _147  and  _148
REMARK   56  A    between atoms: _147  and  _150
REMARK   57  A    between atoms: _150  and  _151
REMARK   58  A    between atoms: _156  and  _157
REMARK   59  A    between atoms: _159  and  _161
REMARK   60  A    between atoms: _161  and  _162
REMARK   61  A    between atoms: _161  and  _164
REMARK   62  A    between atoms: _164  and  _165
REMARK   63  A    between atoms: _167  and  _169
REMARK   64  A    between atoms: _169  and  _170
REMARK   65  A    between atoms: _169  and  _172
REMARK   66  A    between atoms: _172  and  _173
REMARK   67  A    between atoms: _173  and  _174
REMARK   68  A    between atoms: _176  and  _178
REMARK   69  A    between atoms: _178  and  _179
REMARK   70  A    between atoms: _178  and  _181
REMARK   71  A    between atoms: _181  and  _182
REMARK   72  A    between atoms: _192  and  _194
REMARK   73  A    between atoms: _194  and  _195
REMARK   74  A    between atoms: _194  and  _197
REMARK   75  A    between atoms: _197  and  _198
REMARK   76  A    between atoms: _208  and  _210
REMARK   77  A    between atoms: _210  and  _211
REMARK   78  A    between atoms: _210  and  _213
REMARK   79  A    between atoms: _213  and  _214
REMARK   80  A    between atoms: _220  and  _222
REMARK   81  A    between atoms: _222  and  _223
REMARK   82  A    between atoms: _222  and  _225
REMARK   83  A    between atoms: _225  and  _226
REMARK   84  A    between atoms: _229  and  _231
REMARK   85  A    between atoms: _231  and  _232
REMARK   86  A    between atoms: _234  and  _236
REMARK   87  A    between atoms: _236  and  _237
REMARK   88  A    between atoms: _236  and  _239
REMARK   89  A    between atoms: _239  and  _240
REMARK   90  A    between atoms: _243  and  _245
REMARK   91  A    between atoms: _245  and  _246
REMARK   92  A    between atoms: _245  and  _248
REMARK   93  A    between atoms: _248  and  _249
REMARK   94  A    between atoms: _259  and  _261
REMARK   95  A    between atoms: _261  and  _262
REMARK   96  A    between atoms: _261  and  _264
REMARK   97  A    between atoms: _264  and  _265
REMARK   98  A    between atoms: _270  and  _272
REMARK   99  A    between atoms: _272  and  _273
REMARK  100  A    between atoms: _272  and  _275
REMARK  101  A    between atoms: _275  and  _276
REMARK  102  A    between atoms: _276  and  _277
REMARK  103  A    between atoms: _277  and  _278
REMARK  104  A    between atoms: _287  and  _289
REMARK  105  A    between atoms: _289  and  _290
REMARK  106  A    between atoms: _289  and  _292
REMARK  107  A    between atoms: _292  and  _293
REMARK  108  A    between atoms: _293  and  _294
REMARK  109  A    between atoms: _294  and  _295
REMARK  110  A    between atoms: _304  and  _306
REMARK  111  A    between atoms: _306  and  _307
REMARK  112  A    between atoms: _306  and  _309
REMARK  113  A    between atoms: _309  and  _310
REMARK  114  A    between atoms: _312  and  _314
REMARK  115  A    between atoms: _314  and  _315
REMARK  116  A    between atoms: _317  and  _319
REMARK  117  A    between atoms: _319  and  _320
REMARK  118  A    between atoms: _319  and  _322
REMARK  119  A    between atoms: _322  and  _323
REMARK  120  A    between atoms: _323  and  _324
REMARK  121  A    between atoms: _327  and  _329
REMARK  122  A    between atoms: _329  and  _330
REMARK  123  A    between atoms: _329  and  _332
REMARK  124  A    between atoms: _332  and  _333
REMARK  125  A    between atoms: _333  and  _334
REMARK  126  A    between atoms: _334  and  _335
REMARK  127  A    between atoms: _344  and  _346
REMARK  128  A    between atoms: _346  and  _347
REMARK  129  A    between atoms: _346  and  _349
REMARK  130  A    between atoms: _351  and  _353
REMARK  131  A    between atoms: _353  and  _354
REMARK  132  A    between atoms: _353  and  _356
REMARK  133  A    between atoms: _356  and  _357
REMARK  134  A    between atoms: _357  and  _358
REMARK  135  A    between atoms: _360  and  _362
REMARK  136  A    between atoms: _362  and  _363
REMARK  137  A    between atoms: _362  and  _365
REMARK  138  A    between atoms: _365  and  _366
REMARK  139  A    between atoms: _369  and  _371
REMARK  140  A    between atoms: _371  and  _372
REMARK  141  A    between atoms: _371  and  _374
REMARK  142  A    between atoms: _374  and  _375
REMARK  143  A    between atoms: _380  and  _382
REMARK  144  A    between atoms: _382  and  _383
REMARK  145  A    between atoms: _382  and  _385
REMARK  146  A    between atoms: _385  and  _386
REMARK  147  A    between atoms: _386  and  _387
REMARK  148  A    between atoms: _392  and  _394
REMARK  149  A    between atoms: _394  and  _395
REMARK  150  A    between atoms: _394  and  _397
REMARK  151  A    between atoms: _397  and  _398
REMARK  152  A    between atoms: _408  and  _410
REMARK  153  A    between atoms: _410  and  _411
REMARK  154  A    between atoms: _413  and  _415
REMARK  155  A    between atoms: _415  and  _416
REMARK  156  A    between atoms: _415  and  _418
REMARK  157  A    between atoms: _418  and  _419
REMARK                            x       y       z     vdW  Elec       q    Type
REMARK                         _______ _______ _______ _____ _____    ______ ____
ROOT
ATOM      1  CA  ILE A   2     -10.701   1.961  26.002  0.00  0.00    +0.148 C 
ENDROOT
BRANCH   1   4
ATOM      2  C   PHE A   1     -11.505   0.754  27.975  0.00  0.00    +0.239 C 
ATOM      3  O   PHE A   1     -10.346   0.671  28.487  0.00  0.00    -0.274 OA
ATOM      4  N   ILE A   2     -11.739   1.243  26.748  0.00  0.00    -0.297 N 
ATOM      5  H   ILE A   2     -12.676   1.110  26.317  0.00  0.00    +0.150 HD
BRANCH   2   6
ATOM      6  CA  PHE A   1     -12.700   0.240  28.741  0.00  0.00    +0.149 C 
BRANCH   6   7
ATOM      7  N   PHE A   1     -12.261  -0.993  29.369  0.00  0.00    -0.238 NA
ATOM      8  H   PHE A   1     -11.561  -0.950  30.137  0.00  0.00    +0.142 HD
ENDBRANCH   6   7
BRANCH   6   9
ATOM      9  CB  PHE A   1     -13.072   1.273  29.803  0.00  0.00    +0.053 C 
BRANCH   9  10
ATOM     10  CG  PHE A   1     -14.357   2.024  29.519  0.00  0.00    -0.020 A 
ATOM     11  CD2 PHE A   1     -15.392   2.005  30.414  0.00  0.00    -0.004 A 
ATOM     12  CE2 PHE A   1     -16.604   2.681  30.143  0.00  0.00    -0.000 A 
ATOM     13  CZ  PHE A   1     -16.749   3.370  28.957  0.00  0.00    -0.000 A 
ATOM     14  CE1 PHE A   1     -15.720   3.383  28.076  0.00  0.00    -0.000 A 
ATOM     15  CD1 PHE A   1     -14.515   2.736  28.362  0.00  0.00    -0.004 A 
ENDBRANCH   9  10
ENDBRANCH   6   9
ENDBRANCH   2   6
ENDBRANCH   1   4
BRANCH   1  16
ATOM     16  C   ILE A   2     -11.118   3.427  25.846  0.00  0.00    +0.241 C 
ATOM     17  N   HIS A   3     -10.313   4.345  26.359  0.00  0.00    -0.298 N 
ATOM     18  H   HIS A   3      -9.545   4.031  26.986  0.00  0.00    +0.150 HD
ATOM     19  O   ILE A   2     -12.192   3.711  25.292  0.00  0.00    -0.273 OA
BRANCH  17  20
ATOM     20  CA  HIS A   3     -10.450   5.810  26.085  0.00  0.00    +0.143 C 
BRANCH  20  21
ATOM     21  C   HIS A   3      -9.290   6.223  25.211  0.00  0.00    +0.227 C 
ATOM     22  O   HIS A   3      -8.118   6.248  25.650  0.00  0.00    -0.286 OA
ENDBRANCH  20  21
BRANCH  20  23
ATOM     23  CB  HIS A   3     -10.392   6.595  27.380  0.00  0.00    +0.075 C 
BRANCH  23  24
ATOM     24  CG  HIS A   3     -11.725   6.761  28.053  0.00  0.00    +0.082 A 
ATOM     25  ND1 HIS A   3     -12.343   5.747  28.781  0.00  0.00    -0.227 NA
ATOM     26  CE1 HIS A   3     -13.500   6.188  29.240  0.00  0.00    +0.199 A 
ATOM     27  NE2 HIS A   3     -13.660   7.445  28.836  0.00  0.00    -0.221 NA
ATOM     28  CD2 HIS A   3     -12.572   7.819  28.087  0.00  0.00    +0.115 A 
ENDBRANCH  23  24
ENDBRANCH  20  23
ENDBRANCH  17  20
ENDBRANCH   1  16
BRANCH   1  29
ATOM     29  CB  ILE A   2     -10.541   1.354  24.609  0.00  0.00    +0.027 C 
ATOM     30  CG2 ILE A   2      -9.720   2.278  23.729  0.00  0.00    +0.002 C 
BRANCH  29  31
ATOM     31  CG1 ILE A   2      -9.903  -0.051  24.708  0.00  0.00    +0.002 C 
ATOM     32  CD1 ILE A   2      -8.475  -0.091  25.175  0.00  0.00    +0.000 C 
ENDBRANCH  29  31
ENDBRANCH   1  29
TORSDOF 12
REMARK  Name = ../refined-set-2016/4jfs/4jfs_pocket.pdb
REMARK  157 active torsions:
REMARK  status: ('A' for Active; 'I' for Inactive)
REMARK    1  A    between atoms: _1  and  _3
REMARK    2  A    between atoms: _3  and  _4
REMARK    3  A    between atoms: _3  and  _6
REMARK    4  A    between atoms: _6  and  _7
REMARK    5  A    between atoms: _13  and  _15
REMARK    6  A    between atoms: _15  and  _16
REMARK    7  A    between atoms: _15  and  _18
REMARK    8  A    between atoms: _18  and  _19
REMARK    9  A    between atoms: _22  and  _24
REMARK   10  A    between atoms: _24  and  _25
REMARK   11  A    between atoms: _24  and  _27
REMARK   12  A    between atoms: _27  and  _28
REMARK   13  A    between atoms: _33  and  _35
REMARK   14  A    between atoms: _35  and  _36
REMARK   15  A    between atoms: _35  and  _38
REMARK   16  A    between atoms: _38  and  _39
REMARK   17  A    between atoms: _44  and  _45
REMARK   18  A    between atoms: _47  and  _49
REMARK   19  A    between atoms: _49  and  _50
REMARK   20  A    between atoms: _53  and  _55
REMARK   21  A    between atoms: _55  and  _56
REMARK   22  A    between atoms: _59  and  _61
REMARK   23  A    between atoms: _61  and  _62
REMARK   24  A    between atoms: _61  and  _64
REMARK   25  A    between atoms: _64  and  _65
REMARK   26  A    between atoms: _65  and  _66
REMARK   27  A    between atoms: _69  and  _71
REMARK   28  A    between atoms: _71  and  _72
REMARK   29  A    between atoms: _71  and  _74
REMARK   30  A    between atoms: _74  and  _75
REMARK   31  A    between atoms: _85  and  _87
REMARK   32  A    between atoms: _87  and  _88
REMARK   33  A    between atoms: _87  and  _90
REMARK   34  A    between atoms: _90  and  _91
REMARK   35  A    between atoms: _101  and  _103
REMARK   36  A    between atoms: _103  and  _104
REMARK   37  A    between atoms: _103  and  _106
REMARK   38  A    between atoms: _106  and  _107
REMARK   39  A    between atoms: _107  and  _108
REMARK   40  A    between atoms: _108  and  _109
REMARK   41  A    between atoms: _109  and  _110
REMARK   42  A    between atoms: _114  and  _116
REMARK   43  A    between atoms: _116  and  _117
REMARK   44  A    between atoms: _116  and  _119
REMARK   45  A    between atoms: _119  and  _120
REMARK   46  A    between atoms: _123  and  _125
REMARK   47  A    between atoms: _125  and  _126
REMARK   48  A    between atoms: _125  and  _128
REMARK   49  A    between atoms: _128  and  _129
REMARK   50  A    between atoms: _134  and  _136
REMARK   51  A    between atoms: _136  and  _137
REMARK   52  A    between atoms: _136  and  _139
REMARK   53  A    between atoms: _139  and  _140
REMARK   54  A    between atoms: _145  and  _147
REMARK   55  A    between atoms: _147  and  _148
REMARK   56  A    between atoms: _147  and  _150
REMARK   57  A    between atoms: _150  and  _151
REMARK   58  A    between atoms: _156  and  _157
REMARK   59  A    between atoms: _159  and  _161
REMARK   60  A    between atoms: _161  and  _162
REMARK   61  A    between atoms: _161  and  _164
REMARK   62  A    between atoms: _164  and  _165
REMARK   63  A    between atoms: _167  and  _169
REMARK   64  A    between atoms: _169  and  _170
REMARK   65  A    between atoms: _169  and  _172
REMARK   66  A    between atoms: _172  and  _173
REMARK   67  A    between atoms: _173  and  _174
REMARK   68  A    between atoms: _176  and  _178
REMARK   69  A    between atoms: _178  and  _179
REMARK   70  A    between atoms: _178  and  _181
REMARK   71  A    between atoms: _181  and  _182
REMARK   72  A    between atoms: _192  and  _194
REMARK   73  A    between atoms: _194  and  _195
REMARK   74  A    between atoms: _194  and  _197
REMARK   75  A    between atoms: _197  and  _198
REMARK   76  A    between atoms: _208  and  _210
REMARK   77  A    between atoms: _210  and  _211
REMARK   78  A    between atoms: _210  and  _213
REMARK   79  A    between atoms: _213  and  _214
REMARK   80  A    between atoms: _220  and  _222
REMARK   81  A    between atoms: _222  and  _223
REMARK   82  A    between atoms: _222  and  _225
REMARK   83  A    between atoms: _225  and  _226
REMARK   84  A    between atoms: _229  and  _231
REMARK   85  A    between atoms: _231  and  _232
REMARK   86  A    between atoms: _234  and  _236
REMARK   87  A    between atoms: _236  and  _237
REMARK   88  A    between atoms: _236  and  _239
REMARK   89  A    between atoms: _239  and  _240
REMARK   90  A    between atoms: _243  and  _245
REMARK   91  A    between atoms: _245  and  _246
REMARK   92  A    between atoms: _245  and  _248
REMARK   93  A    between atoms: _248  and  _249
REMARK   94  A    between atoms: _259  and  _261
REMARK   95  A    between atoms: _261  and  _262
REMARK   96  A    between atoms: _261  and  _264
REMARK   97  A    between atoms: _264  and  _265
REMARK   98  A    between atoms: _270  and  _272
REMARK   99  A    between atoms: _272  and  _273
REMARK  100  A    between atoms: _272  and  _275
REMARK  101  A    between atoms: _275  and  _276
REMARK  102  A    between atoms: _276  and  _277
REMARK  103  A    between atoms: _277  and  _278
REMARK  104  A    between atoms: _287  and  _289
REMARK  105  A    between atoms: _289  and  _290
REMARK  106  A    between atoms: _289  and  _292
REMARK  107  A    between atoms: _292  and  _293
REMARK  108  A    between atoms: _293  and  _294
REMARK  109  A    between atoms: _294  and  _295
REMARK  110  A    between atoms: _304  and  _306
REMARK  111  A    between atoms: _306  and  _307
REMARK  112  A    between atoms: _306  and  _309
REMARK  113  A    between atoms: _309  and  _310
REMARK  114  A    between atoms: _312  and  _314
REMARK  115  A    between atoms: _314  and  _315
REMARK  116  A    between atoms: _317  and  _319
REMARK  117  A    between atoms: _319  and  _320
REMARK  118  A    between atoms: _319  and  _322
REMARK  119  A    between atoms: _322  and  _323
REMARK  120  A    between atoms: _323  and  _324
REMARK  121  A    between atoms: _327  and  _329
REMARK  122  A    between atoms: _329  and  _330
REMARK  123  A    between atoms: _329  and  _332
REMARK  124  A    between atoms: _332  and  _333
REMARK  125  A    between atoms: _333  and  _334
REMARK  126  A    between atoms: _334  and  _335
REMARK  127  A    between atoms: _344  and  _346
REMARK  128  A    between atoms: _346  and  _347
REMARK  129  A    between atoms: _346  and  _349
REMARK  130  A    between atoms: _351  and  _353
REMARK  131  A    between atoms: _353  and  _354
REMARK  132  A    between atoms: _353  and  _356
REMARK  133  A    between atoms: _356  and  _357
REMARK  134  A    between atoms: _357  and  _358
REMARK  135  A    between atoms: _360  and  _362
REMARK  136  A    between atoms: _362  and  _363
REMARK  137  A    between atoms: _362  and  _365
REMARK  138  A    between atoms: _365  and  _366
REMARK  139  A    between atoms: _369  and  _371
REMARK  140  A    between atoms: _371  and  _372
REMARK  141  A    between atoms: _371  and  _374
REMARK  142  A    between atoms: _374  and  _375
REMARK  143  A    between atoms: _380  and  _382
REMARK  144  A    between atoms: _382  and  _383
REMARK  145  A    between atoms: _382  and  _385
REMARK  146  A    between atoms: _385  and  _386
REMARK  147  A    between atoms: _386  and  _387
REMARK  148  A    between atoms: _392  and  _394
REMARK  149  A    between atoms: _394  and  _395
REMARK  150  A    between atoms: _394  and  _397
REMARK  151  A    between atoms: _397  and  _398
REMARK  152  A    between atoms: _408  and  _410
REMARK  153  A    between atoms: _410  and  _411
REMARK  154  A    between atoms: _413  and  _415
REMARK  155  A    between atoms: _415  and  _416
REMARK  156  A    between atoms: _415  and  _418
REMARK  157  A    between atoms: _418  and  _419
REMARK                            x       y       z     vdW  Elec       q    Type
REMARK                         _______ _______ _______ _____ _____    ______ ____
ROOT
ATOM      1  CG  TYR A   1      -8.259  12.537  24.918  0.00  0.00    -0.020 A 
ATOM      2  CD2 TYR A   1      -7.819  11.277  25.284  0.00  0.00    -0.001 A 
ATOM      3  CE2 TYR A   1      -8.614  10.166  25.148  0.00  0.00    +0.036 A 
ATOM      4  CZ  TYR A   1      -9.941  10.314  24.685  0.00  0.00    +0.134 A 
ATOM      5  CE1 TYR A   1     -10.382  11.556  24.294  0.00  0.00    +0.036 A 
ATOM      6  CD1 TYR A   1      -9.540  12.664  24.429  0.00  0.00    -0.001 A 
ENDROOT
BRANCH   4   7
ATOM      7  OH  TYR A   1     -10.723   9.157  24.592  0.00  0.00    -0.506 OA
ATOM      8  HH  TYR A   1     -10.972   9.003  23.646  0.00  0.00    +0.292 HD
ENDBRANCH   4   7
BRANCH   1   9
ATOM      9  CB  TYR A   1      -7.334  13.753  25.054  0.00  0.00    +0.051 C 
BRANCH   9  10
ATOM     10  CA  TYR A   1      -6.304  13.868  23.956  0.00  0.00    +0.137 C 
BRANCH  10  11
ATOM     11  N   TYR A   1      -6.904  13.650  22.652  0.00  0.00    -0.239 NA
ATOM     12  H   TYR A   1      -7.927  13.468  22.599  0.00  0.00    +0.142 HD
ENDBRANCH  10  11
BRANCH  10  13
ATOM     13  C   TYR A   1      -5.081  12.997  24.252  0.00  0.00    +0.224 C 
ATOM     14  O   TYR A   1      -4.263  13.424  25.048  0.00  0.00    -0.287 OA
ENDBRANCH  10  13
ENDBRANCH   9  10
ENDBRANCH   1   9
TORSDOF 5
REMARK  Name = ../refined-set-2016/4jfs/4jfs_pocket.pdb
REMARK  157 active torsions:
REMARK  status: ('A' for Active; 'I' for Inactive)
REMARK    1  A    between atoms: _1  and  _3
REMARK    2  A    between atoms: _3  and  _4
REMARK    3  A    between atoms: _3  and  _6
REMARK    4  A    between atoms: _6  and  _7
REMARK    5  A    between atoms: _13  and  _15
REMARK    6  A    between atoms: _15  and  _16
REMARK    7  A    between atoms: _15  and  _18
REMARK    8  A    between atoms: _18  and  _19
REMARK    9  A    between atoms: _22  and  _24
REMARK   10  A    between atoms: _24  and  _25
REMARK   11  A    between atoms: _24  and  _27
REMARK   12  A    between atoms: _27  and  _28
REMARK   13  A    between atoms: _33  and  _35
REMARK   14  A    between atoms: _35  and  _36
REMARK   15  A    between atoms: _35  and  _38
REMARK   16  A    between atoms: _38  and  _39
REMARK   17  A    between atoms: _44  and  _45
REMARK   18  A    between atoms: _47  and  _49
REMARK   19  A    between atoms: _49  and  _50
REMARK   20  A    between atoms: _53  and  _55
REMARK   21  A    between atoms: _55  and  _56
REMARK   22  A    between atoms: _59  and  _61
REMARK   23  A    between atoms: _61  and  _62
REMARK   24  A    between atoms: _61  and  _64
REMARK   25  A    between atoms: _64  and  _65
REMARK   26  A    between atoms: _65  and  _66
REMARK   27  A    between atoms: _69  and  _71
REMARK   28  A    between atoms: _71  and  _72
REMARK   29  A    between atoms: _71  and  _74
REMARK   30  A    between atoms: _74  and  _75
REMARK   31  A    between atoms: _85  and  _87
REMARK   32  A    between atoms: _87  and  _88
REMARK   33  A    between atoms: _87  and  _90
REMARK   34  A    between atoms: _90  and  _91
REMARK   35  A    between atoms: _101  and  _103
REMARK   36  A    between atoms: _103  and  _104
REMARK   37  A    between atoms: _103  and  _106
REMARK   38  A    between atoms: _106  and  _107
REMARK   39  A    between atoms: _107  and  _108
REMARK   40  A    between atoms: _108  and  _109
REMARK   41  A    between atoms: _109  and  _110
REMARK   42  A    between atoms: _114  and  _116
REMARK   43  A    between atoms: _116  and  _117
REMARK   44  A    between atoms: _116  and  _119
REMARK   45  A    between atoms: _119  and  _120
REMARK   46  A    between atoms: _123  and  _125
REMARK   47  A    between atoms: _125  and  _126
REMARK   48  A    between atoms: _125  and  _128
REMARK   49  A    between atoms: _128  and  _129
REMARK   50  A    between atoms: _134  and  _136
REMARK   51  A    between atoms: _136  and  _137
REMARK   52  A    between atoms: _136  and  _139
REMARK   53  A    between atoms: _139  and  _140
REMARK   54  A    between atoms: _145  and  _147
REMARK   55  A    between atoms: _147  and  _148
REMARK   56  A    between atoms: _147  and  _150
REMARK   57  A    between atoms: _150  and  _151
REMARK   58  A    between atoms: _156  and  _157
REMARK   59  A    between atoms: _159  and  _161
REMARK   60  A    between atoms: _161  and  _162
REMARK   61  A    between atoms: _161  and  _164
REMARK   62  A    between atoms: _164  and  _165
REMARK   63  A    between atoms: _167  and  _169
REMARK   64  A    between atoms: _169  and  _170
REMARK   65  A    between atoms: _169  and  _172
REMARK   66  A    between atoms: _172  and  _173
REMARK   67  A    between atoms: _173  and  _174
REMARK   68  A    between atoms: _176  and  _178
REMARK   69  A    between atoms: _178  and  _179
REMARK   70  A    between atoms: _178  and  _181
REMARK   71  A    between atoms: _181  and  _182
REMARK   72  A    between atoms: _192  and  _194
REMARK   73  A    between atoms: _194  and  _195
REMARK   74  A    between atoms: _194  and  _197
REMARK   75  A    between atoms: _197  and  _198
REMARK   76  A    between atoms: _208  and  _210
REMARK   77  A    between atoms: _210  and  _211
REMARK   78  A    between atoms: _210  and  _213
REMARK   79  A    between atoms: _213  and  _214
REMARK   80  A    between atoms: _220  and  _222
REMARK   81  A    between atoms: _222  and  _223
REMARK   82  A    between atoms: _222  and  _225
REMARK   83  A    between atoms: _225  and  _226
REMARK   84  A    between atoms: _229  and  _231
REMARK   85  A    between atoms: _231  and  _232
REMARK   86  A    between atoms: _234  and  _236
REMARK   87  A    between atoms: _236  and  _237
REMARK   88  A    between atoms: _236  and  _239
REMARK   89  A    between atoms: _239  and  _240
REMARK   90  A    between atoms: _243  and  _245
REMARK   91  A    between atoms: _245  and  _246
REMARK   92  A    between atoms: _245  and  _248
REMARK   93  A    between atoms: _248  and  _249
REMARK   94  A    between atoms: _259  and  _261
REMARK   95  A    between atoms: _261  and  _262
REMARK   96  A    between atoms: _261  and  _264
REMARK   97  A    between atoms: _264  and  _265
REMARK   98  A    between atoms: _270  and  _272
REMARK   99  A    between atoms: _272  and  _273
REMARK  100  A    between atoms: _272  and  _275
REMARK  101  A    between atoms: _275  and  _276
REMARK  102  A    between atoms: _276  and  _277
REMARK  103  A    between atoms: _277  and  _278
REMARK  104  A    between atoms: _287  and  _289
REMARK  105  A    between atoms: _289  and  _290
REMARK  106  A    between atoms: _289  and  _292
REMARK  107  A    between atoms: _292  and  _293
REMARK  108  A    between atoms: _293  and  _294
REMARK  109  A    between atoms: _294  and  _295
REMARK  110  A    between atoms: _304  and  _306
REMARK  111  A    between atoms: _306  and  _307
REMARK  112  A    between atoms: _306  and  _309
REMARK  113  A    between atoms: _309  and  _310
REMARK  114  A    between atoms: _312  and  _314
REMARK  115  A    between atoms: _314  and  _315
REMARK  116  A    between atoms: _317  and  _319
REMARK  117  A    between atoms: _319  and  _320
REMARK  118  A    between atoms: _319  and  _322
REMARK  119  A    between atoms: _322  and  _323
REMARK  120  A    between atoms: _323  and  _324
REMARK  121  A    between atoms: _327  and  _329
REMARK  122  A    between atoms: _329  and  _330
REMARK  123  A    between atoms: _329  and  _332
REMARK  124  A    between atoms: _332  and  _333
REMARK  125  A    between atoms: _333  and  _334
REMARK  126  A    between atoms: _334  and  _335
REMARK  127  A    between atoms: _344  and  _346
REMARK  128  A    between atoms: _346  and  _347
REMARK  129  A    between atoms: _346  and  _349
REMARK  130  A    between atoms: _351  and  _353
REMARK  131  A    between atoms: _353  and  _354
REMARK  132  A    between atoms: _353  and  _356
REMARK  133  A    between atoms: _356  and  _357
REMARK  134  A    between atoms: _357  and  _358
REMARK  135  A    between atoms: _360  and  _362
REMARK  136  A    between atoms: _362  and  _363
REMARK  137  A    between atoms: _362  and  _365
REMARK  138  A    between atoms: _365  and  _366
REMARK  139  A    between atoms: _369  and  _371
REMARK  140  A    between atoms: _371  and  _372
REMARK  141  A    between atoms: _371  and  _374
REMARK  142  A    between atoms: _374  and  _375
REMARK  143  A    between atoms: _380  and  _382
REMARK  144  A    between atoms: _382  and  _383
REMARK  145  A    between atoms: _382  and  _385
REMARK  146  A    between atoms: _385  and  _386
REMARK  147  A    between atoms: _386  and  _387
REMARK  148  A    between atoms: _392  and  _394
REMARK  149  A    between atoms: _394  and  _395
REMARK  150  A    between atoms: _394  and  _397
REMARK  151  A    between atoms: _397  and  _398
REMARK  152  A    between atoms: _408  and  _410
REMARK  153  A    between atoms: _410  and  _411
REMARK  154  A    between atoms: _413  and  _415
REMARK  155  A    between atoms: _415  and  _416
REMARK  156  A    between atoms: _415  and  _418
REMARK  157  A    between atoms: _418  and  _419
REMARK                            x       y       z     vdW  Elec       q    Type
REMARK                         _______ _______ _______ _____ _____    ______ ____
ROOT
ATOM      1  CA  GLU A   3      -9.403  13.617  28.159  0.00  0.00    +0.149 C 
ENDROOT
BRANCH   1   3
ATOM      2  C   ALA A   2      -7.364  14.328  29.212  0.00  0.00    +0.241 C 
ATOM      3  N   GLU A   3      -8.447  13.559  29.238  0.00  0.00    -0.297 N 
ATOM      4  H   GLU A   3      -8.606  12.914  30.038  0.00  0.00    +0.150 HD
ATOM      5  O   ALA A   2      -7.165  15.135  28.339  0.00  0.00    -0.273 OA
BRANCH   2   6
ATOM      6  CA  ALA A   2      -6.354  14.145  30.326  0.00  0.00    +0.149 C 
ATOM      7  CB  ALA A   2      -5.349  13.098  29.938  0.00  0.00    +0.031 C 
BRANCH   6  10
ATOM      8  C   ALA A   1      -7.892  14.558  32.169  0.00  0.00    +0.238 C 
ATOM      9  O   ALA A   1      -8.340  15.590  31.642  0.00  0.00    -0.274 OA
ATOM     10  N   ALA A   2      -6.980  13.801  31.602  0.00  0.00    -0.297 N 
ATOM     11  H   ALA A   2      -6.692  12.923  32.079  0.00  0.00    +0.150 HD
BRANCH   8  12
ATOM     12  CA  ALA A   1      -8.321  14.124  33.578  0.00  0.00    +0.145 C 
ATOM     13  CB  ALA A   1      -9.758  13.596  33.572  0.00  0.00    +0.028 C 
BRANCH  12  14
ATOM     14  N   ALA A   1      -8.240  15.257  34.481  0.00  0.00    -0.238 NA
ATOM     15  H   ALA A   1      -9.100  15.551  34.987  0.00  0.00    +0.142 HD
ENDBRANCH  12  14
ENDBRANCH   8  12
ENDBRANCH   6  10
ENDBRANCH   2   6
ENDBRANCH   1   3
BRANCH   1  16
ATOM     16  C   GLU A   3     -10.228  14.903  28.167  0.00  0.00    +0.241 C 
ATOM     17  N   TRP A   4     -10.178  15.623  29.278  0.00  0.00    -0.298 N 
ATOM     18  H   TRP A   4      -9.665  15.217  30.086  0.00  0.00    +0.150 HD
ATOM     19  O   GLU A   3     -10.833  15.267  27.129  0.00  0.00    -0.273 OA
BRANCH  17  20
ATOM     20  CA  TRP A   4     -10.786  16.945  29.464  0.00  0.00    +0.141 C 
BRANCH  20  21
ATOM     21  C   TRP A   4      -9.777  18.120  29.303  0.00  0.00    +0.227 C 
ATOM     22  O   TRP A   4     -10.099  19.269  29.575  0.00  0.00    -0.286 OA
ENDBRANCH  20  21
BRANCH  20  23
ATOM     23  CB  TRP A   4     -11.407  17.017  30.865  0.00  0.00    +0.056 C 
BRANCH  23  24
ATOM     24  CG  TRP A   4     -12.770  16.477  30.970  0.00  0.00    -0.002 A 
ATOM     25  CD2 TRP A   4     -13.958  17.231  31.028  0.00  0.00    +0.013 A 
ATOM     26  CE2 TRP A   4     -15.037  16.330  31.110  0.00  0.00    +0.056 A 
ATOM     27  CZ2 TRP A   4     -16.351  16.741  31.115  0.00  0.00    +0.017 A 
ATOM     28  CH2 TRP A   4     -16.572  18.092  31.147  0.00  0.00    +0.001 A 
ATOM     29  CZ3 TRP A   4     -15.540  19.003  31.095  0.00  0.00    +0.000 A 
ATOM     30  NE1 TRP A   4     -14.527  15.077  31.074  0.00  0.00    -0.352 N 
ATOM     31  HE1 TRP A   4     -15.079  14.196  31.093  0.00  0.00    +0.166 HD
ATOM     32  CE3 TRP A   4     -14.229  18.593  31.033  0.00  0.00    +0.001 A 
ATOM     33  CD1 TRP A   4     -13.141  15.166  31.008  0.00  0.00    +0.068 A 
ENDBRANCH  23  24
ENDBRANCH  20  23
ENDBRANCH  17  20
ENDBRANCH   1  16
BRANCH   1  34
ATOM     34  CB  GLU A   3     -10.267  12.342  28.116  0.00  0.00    +0.041 C 
BRANCH  34  35
ATOM     35  CG  GLU A   3     -11.309  12.245  29.204  0.00  0.00    +0.116 C 
BRANCH  35  36
ATOM     36  CD  GLU A   3     -10.779  11.838  30.552  0.00  0.00    +0.365 C 
ATOM     37  OE2 GLU A   3     -11.659  11.759  31.423  0.00  0.00    -0.246 OA
ATOM     38  OE1 GLU A   3      -9.553  11.453  30.707  0.00  0.00    -0.246 OA
ENDBRANCH  35  36
ENDBRANCH  34  35
ENDBRANCH   1  34
TORSDOF 13
REMARK  Name = ../refined-set-2016/4jfs/4jfs_pocket.pdb
REMARK  157 active torsions:
REMARK  status: ('A' for Active; 'I' for Inactive)
REMARK    1  A    between atoms: _1  and  _3
REMARK    2  A    between atoms: _3  and  _4
REMARK    3  A    between atoms: _3  and  _6
REMARK    4  A    between atoms: _6  and  _7
REMARK    5  A    between atoms: _13  and  _15
REMARK    6  A    between atoms: _15  and  _16
REMARK    7  A    between atoms: _15  and  _18
REMARK    8  A    between atoms: _18  and  _19
REMARK    9  A    between atoms: _22  and  _24
REMARK   10  A    between atoms: _24  and  _25
REMARK   11  A    between atoms: _24  and  _27
REMARK   12  A    between atoms: _27  and  _28
REMARK   13  A    between atoms: _33  and  _35
REMARK   14  A    between atoms: _35  and  _36
REMARK   15  A    between atoms: _35  and  _38
REMARK   16  A    between atoms: _38  and  _39
REMARK   17  A    between atoms: _44  and  _45
REMARK   18  A    between atoms: _47  and  _49
REMARK   19  A    between atoms: _49  and  _50
REMARK   20  A    between atoms: _53  and  _55
REMARK   21  A    between atoms: _55  and  _56
REMARK   22  A    between atoms: _59  and  _61
REMARK   23  A    between atoms: _61  and  _62
REMARK   24  A    between atoms: _61  and  _64
REMARK   25  A    between atoms: _64  and  _65
REMARK   26  A    between atoms: _65  and  _66
REMARK   27  A    between atoms: _69  and  _71
REMARK   28  A    between atoms: _71  and  _72
REMARK   29  A    between atoms: _71  and  _74
REMARK   30  A    between atoms: _74  and  _75
REMARK   31  A    between atoms: _85  and  _87
REMARK   32  A    between atoms: _87  and  _88
REMARK   33  A    between atoms: _87  and  _90
REMARK   34  A    between atoms: _90  and  _91
REMARK   35  A    between atoms: _101  and  _103
REMARK   36  A    between atoms: _103  and  _104
REMARK   37  A    between atoms: _103  and  _106
REMARK   38  A    between atoms: _106  and  _107
REMARK   39  A    between atoms: _107  and  _108
REMARK   40  A    between atoms: _108  and  _109
REMARK   41  A    between atoms: _109  and  _110
REMARK   42  A    between atoms: _114  and  _116
REMARK   43  A    between atoms: _116  and  _117
REMARK   44  A    between atoms: _116  and  _119
REMARK   45  A    between atoms: _119  and  _120
REMARK   46  A    between atoms: _123  and  _125
REMARK   47  A    between atoms: _125  and  _126
REMARK   48  A    between atoms: _125  and  _128
REMARK   49  A    between atoms: _128  and  _129
REMARK   50  A    between atoms: _134  and  _136
REMARK   51  A    between atoms: _136  and  _137
REMARK   52  A    between atoms: _136  and  _139
REMARK   53  A    between atoms: _139  and  _140
REMARK   54  A    between atoms: _145  and  _147
REMARK   55  A    between atoms: _147  and  _148
REMARK   56  A    between atoms: _147  and  _150
REMARK   57  A    between atoms: _150  and  _151
REMARK   58  A    between atoms: _156  and  _157
REMARK   59  A    between atoms: _159  and  _161
REMARK   60  A    between atoms: _161  and  _162
REMARK   61  A    between atoms: _161  and  _164
REMARK   62  A    between atoms: _164  and  _165
REMARK   63  A    between atoms: _167  and  _169
REMARK   64  A    between atoms: _169  and  _170
REMARK   65  A    between atoms: _169  and  _172
REMARK   66  A    between atoms: _172  and  _173
REMARK   67  A    between atoms: _173  and  _174
REMARK   68  A    between atoms: _176  and  _178
REMARK   69  A    between atoms: _178  and  _179
REMARK   70  A    between atoms: _178  and  _181
REMARK   71  A    between atoms: _181  and  _182
REMARK   72  A    between atoms: _192  and  _194
REMARK   73  A    between atoms: _194  and  _195
REMARK   74  A    between atoms: _194  and  _197
REMARK   75  A    between atoms: _197  and  _198
REMARK   76  A    between atoms: _208  and  _210
REMARK   77  A    between atoms: _210  and  _211
REMARK   78  A    between atoms: _210  and  _213
REMARK   79  A    between atoms: _213  and  _214
REMARK   80  A    between atoms: _220  and  _222
REMARK   81  A    between atoms: _222  and  _223
REMARK   82  A    between atoms: _222  and  _225
REMARK   83  A    between atoms: _225  and  _226
REMARK   84  A    between atoms: _229  and  _231
REMARK   85  A    between atoms: _231  and  _232
REMARK   86  A    between atoms: _234  and  _236
REMARK   87  A    between atoms: _236  and  _237
REMARK   88  A    between atoms: _236  and  _239
REMARK   89  A    between atoms: _239  and  _240
REMARK   90  A    between atoms: _243  and  _245
REMARK   91  A    between atoms: _245  and  _246
REMARK   92  A    between atoms: _245  and  _248
REMARK   93  A    between atoms: _248  and  _249
REMARK   94  A    between atoms: _259  and  _261
REMARK   95  A    between atoms: _261  and  _262
REMARK   96  A    between atoms: _261  and  _264
REMARK   97  A    between atoms: _264  and  _265
REMARK   98  A    between atoms: _270  and  _272
REMARK   99  A    between atoms: _272  and  _273
REMARK  100  A    between atoms: _272  and  _275
REMARK  101  A    between atoms: _275  and  _276
REMARK  102  A    between atoms: _276  and  _277
REMARK  103  A    between atoms: _277  and  _278
REMARK  104  A    between atoms: _287  and  _289
REMARK  105  A    between atoms: _289  and  _290
REMARK  106  A    between atoms: _289  and  _292
REMARK  107  A    between atoms: _292  and  _293
REMARK  108  A    between atoms: _293  and  _294
REMARK  109  A    between atoms: _294  and  _295
REMARK  110  A    between atoms: _304  and  _306
REMARK  111  A    between atoms: _306  and  _307
REMARK  112  A    between atoms: _306  and  _309
REMARK  113  A    between atoms: _309  and  _310
REMARK  114  A    between atoms: _312  and  _314
REMARK  115  A    between atoms: _314  and  _315
REMARK  116  A    between atoms: _317  and  _319
REMARK  117  A    between atoms: _319  and  _320
REMARK  118  A    between atoms: _319  and  _322
REMARK  119  A    between atoms: _322  and  _323
REMARK  120  A    between atoms: _323  and  _324
REMARK  121  A    between atoms: _327  and  _329
REMARK  122  A    between atoms: _329  and  _330
REMARK  123  A    between atoms: _329  and  _332
REMARK  124  A    between atoms: _332  and  _333
REMARK  125  A    between atoms: _333  and  _334
REMARK  126  A    between atoms: _334  and  _335
REMARK  127  A    between atoms: _344  and  _346
REMARK  128  A    between atoms: _346  and  _347
REMARK  129  A    between atoms: _346  and  _349
REMARK  130  A    between atoms: _351  and  _353
REMARK  131  A    between atoms: _353  and  _354
REMARK  132  A    between atoms: _353  and  _356
REMARK  133  A    between atoms: _356  and  _357
REMARK  134  A    between atoms: _357  and  _358
REMARK  135  A    between atoms: _360  and  _362
REMARK  136  A    between atoms: _362  and  _363
REMARK  137  A    between atoms: _362  and  _365
REMARK  138  A    between atoms: _365  and  _366
REMARK  139  A    between atoms: _369  and  _371
REMARK  140  A    between atoms: _371  and  _372
REMARK  141  A    between atoms: _371  and  _374
REMARK  142  A    between atoms: _374  and  _375
REMARK  143  A    between atoms: _380  and  _382
REMARK  144  A    between atoms: _382  and  _383
REMARK  145  A    between atoms: _382  and  _385
REMARK  146  A    between atoms: _385  and  _386
REMARK  147  A    between atoms: _386  and  _387
REMARK  148  A    between atoms: _392  and  _394
REMARK  149  A    between atoms: _394  and  _395
REMARK  150  A    between atoms: _394  and  _397
REMARK  151  A    between atoms: _397  and  _398
REMARK  152  A    between atoms: _408  and  _410
REMARK  153  A    between atoms: _410  and  _411
REMARK  154  A    between atoms: _413  and  _415
REMARK  155  A    between atoms: _415  and  _416
REMARK  156  A    between atoms: _415  and  _418
REMARK  157  A    between atoms: _418  and  _419
REMARK                            x       y       z     vdW  Elec       q    Type
REMARK                         _______ _______ _______ _____ _____    ______ ____
ROOT
ATOM      1  CG  TRP A   1      -8.265  20.347  32.452  0.00  0.00    -0.002 A 
ATOM      2  CD2 TRP A   1      -9.509  20.180  33.118  0.00  0.00    +0.013 A 
ATOM      3  CE3 TRP A   1     -10.476  21.068  33.609  0.00  0.00    +0.001 A 
ATOM      4  CZ3 TRP A   1     -11.557  20.576  34.226  0.00  0.00    +0.000 A 
ATOM      5  CH2 TRP A   1     -11.746  19.172  34.372  0.00  0.00    +0.001 A 
ATOM      6  CZ2 TRP A   1     -10.852  18.282  33.893  0.00  0.00    +0.017 A 
ATOM      7  CE2 TRP A   1      -9.700  18.804  33.298  0.00  0.00    +0.056 A 
ATOM      8  NE1 TRP A   1      -8.624  18.159  32.756  0.00  0.00    -0.352 N 
ATOM      9  HE1 TRP A   1      -8.480  17.129  32.736  0.00  0.00    +0.166 HD
ATOM     10  CD1 TRP A   1      -7.772  19.092  32.246  0.00  0.00    +0.068 A 
ENDROOT
BRANCH   1  11
ATOM     11  CB  TRP A   1      -7.619  21.617  32.090  0.00  0.00    +0.053 C 
BRANCH  11  12
ATOM     12  CA  TRP A   1      -8.543  22.689  31.458  0.00  0.00    +0.137 C 
BRANCH  12  13
ATOM     13  N   TRP A   1      -9.497  22.152  30.489  0.00  0.00    -0.239 NA
ATOM     14  H   TRP A   1      -9.497  21.139  30.254  0.00  0.00    +0.142 HD
ENDBRANCH  12  13
BRANCH  12  15
ATOM     15  C   TRP A   1      -7.657  23.784  30.840  0.00  0.00    +0.224 C 
ATOM     16  O   TRP A   1      -7.334  24.749  31.500  0.00  0.00    -0.287 OA
ENDBRANCH  12  15
ENDBRANCH  11  12
ENDBRANCH   1  11
TORSDOF 4
REMARK  Name = ../refined-set-2016/4jfs/4jfs_pocket.pdb
REMARK  157 active torsions:
REMARK  status: ('A' for Active; 'I' for Inactive)
REMARK    1  A    between atoms: _1  and  _3
REMARK    2  A    between atoms: _3  and  _4
REMARK    3  A    between atoms: _3  and  _6
REMARK    4  A    between atoms: _6  and  _7
REMARK    5  A    between atoms: _13  and  _15
REMARK    6  A    between atoms: _15  and  _16
REMARK    7  A    between atoms: _15  and  _18
REMARK    8  A    between atoms: _18  and  _19
REMARK    9  A    between atoms: _22  and  _24
REMARK   10  A    between atoms: _24  and  _25
REMARK   11  A    between atoms: _24  and  _27
REMARK   12  A    between atoms: _27  and  _28
REMARK   13  A    between atoms: _33  and  _35
REMARK   14  A    between atoms: _35  and  _36
REMARK   15  A    between atoms: _35  and  _38
REMARK   16  A    between atoms: _38  and  _39
REMARK   17  A    between atoms: _44  and  _45
REMARK   18  A    between atoms: _47  and  _49
REMARK   19  A    between atoms: _49  and  _50
REMARK   20  A    between atoms: _53  and  _55
REMARK   21  A    between atoms: _55  and  _56
REMARK   22  A    between atoms: _59  and  _61
REMARK   23  A    between atoms: _61  and  _62
REMARK   24  A    between atoms: _61  and  _64
REMARK   25  A    between atoms: _64  and  _65
REMARK   26  A    between atoms: _65  and  _66
REMARK   27  A    between atoms: _69  and  _71
REMARK   28  A    between atoms: _71  and  _72
REMARK   29  A    between atoms: _71  and  _74
REMARK   30  A    between atoms: _74  and  _75
REMARK   31  A    between atoms: _85  and  _87
REMARK   32  A    between atoms: _87  and  _88
REMARK   33  A    between atoms: _87  and  _90
REMARK   34  A    between atoms: _90  and  _91
REMARK   35  A    between atoms: _101  and  _103
REMARK   36  A    between atoms: _103  and  _104
REMARK   37  A    between atoms: _103  and  _106
REMARK   38  A    between atoms: _106  and  _107
REMARK   39  A    between atoms: _107  and  _108
REMARK   40  A    between atoms: _108  and  _109
REMARK   41  A    between atoms: _109  and  _110
REMARK   42  A    between atoms: _114  and  _116
REMARK   43  A    between atoms: _116  and  _117
REMARK   44  A    between atoms: _116  and  _119
REMARK   45  A    between atoms: _119  and  _120
REMARK   46  A    between atoms: _123  and  _125
REMARK   47  A    between atoms: _125  and  _126
REMARK   48  A    between atoms: _125  and  _128
REMARK   49  A    between atoms: _128  and  _129
REMARK   50  A    between atoms: _134  and  _136
REMARK   51  A    between atoms: _136  and  _137
REMARK   52  A    between atoms: _136  and  _139
REMARK   53  A    between atoms: _139  and  _140
REMARK   54  A    between atoms: _145  and  _147
REMARK   55  A    between atoms: _147  and  _148
REMARK   56  A    between atoms: _147  and  _150
REMARK   57  A    between atoms: _150  and  _151
REMARK   58  A    between atoms: _156  and  _157
REMARK   59  A    between atoms: _159  and  _161
REMARK   60  A    between atoms: _161  and  _162
REMARK   61  A    between atoms: _161  and  _164
REMARK   62  A    between atoms: _164  and  _165
REMARK   63  A    between atoms: _167  and  _169
REMARK   64  A    between atoms: _169  and  _170
REMARK   65  A    between atoms: _169  and  _172
REMARK   66  A    between atoms: _172  and  _173
REMARK   67  A    between atoms: _173  and  _174
REMARK   68  A    between atoms: _176  and  _178
REMARK   69  A    between atoms: _178  and  _179
REMARK   70  A    between atoms: _178  and  _181
REMARK   71  A    between atoms: _181  and  _182
REMARK   72  A    between atoms: _192  and  _194
REMARK   73  A    between atoms: _194  and  _195
REMARK   74  A    between atoms: _194  and  _197
REMARK   75  A    between atoms: _197  and  _198
REMARK   76  A    between atoms: _208  and  _210
REMARK   77  A    between atoms: _210  and  _211
REMARK   78  A    between atoms: _210  and  _213
REMARK   79  A    between atoms: _213  and  _214
REMARK   80  A    between atoms: _220  and  _222
REMARK   81  A    between atoms: _222  and  _223
REMARK   82  A    between atoms: _222  and  _225
REMARK   83  A    between atoms: _225  and  _226
REMARK   84  A    between atoms: _229  and  _231
REMARK   85  A    between atoms: _231  and  _232
REMARK   86  A    between atoms: _234  and  _236
REMARK   87  A    between atoms: _236  and  _237
REMARK   88  A    between atoms: _236  and  _239
REMARK   89  A    between atoms: _239  and  _240
REMARK   90  A    between atoms: _243  and  _245
REMARK   91  A    between atoms: _245  and  _246
REMARK   92  A    between atoms: _245  and  _248
REMARK   93  A    between atoms: _248  and  _249
REMARK   94  A    between atoms: _259  and  _261
REMARK   95  A    between atoms: _261  and  _262
REMARK   96  A    between atoms: _261  and  _264
REMARK   97  A    between atoms: _264  and  _265
REMARK   98  A    between atoms: _270  and  _272
REMARK   99  A    between atoms: _272  and  _273
REMARK  100  A    between atoms: _272  and  _275
REMARK  101  A    between atoms: _275  and  _276
REMARK  102  A    between atoms: _276  and  _277
REMARK  103  A    between atoms: _277  and  _278
REMARK  104  A    between atoms: _287  and  _289
REMARK  105  A    between atoms: _289  and  _290
REMARK  106  A    between atoms: _289  and  _292
REMARK  107  A    between atoms: _292  and  _293
REMARK  108  A    between atoms: _293  and  _294
REMARK  109  A    between atoms: _294  and  _295
REMARK  110  A    between atoms: _304  and  _306
REMARK  111  A    between atoms: _306  and  _307
REMARK  112  A    between atoms: _306  and  _309
REMARK  113  A    between atoms: _309  and  _310
REMARK  114  A    between atoms: _312  and  _314
REMARK  115  A    between atoms: _314  and  _315
REMARK  116  A    between atoms: _317  and  _319
REMARK  117  A    between atoms: _319  and  _320
REMARK  118  A    between atoms: _319  and  _322
REMARK  119  A    between atoms: _322  and  _323
REMARK  120  A    between atoms: _323  and  _324
REMARK  121  A    between atoms: _327  and  _329
REMARK  122  A    between atoms: _329  and  _330
REMARK  123  A    between atoms: _329  and  _332
REMARK  124  A    between atoms: _332  and  _333
REMARK  125  A    between atoms: _333  and  _334
REMARK  126  A    between atoms: _334  and  _335
REMARK  127  A    between atoms: _344  and  _346
REMARK  128  A    between atoms: _346  and  _347
REMARK  129  A    between atoms: _346  and  _349
REMARK  130  A    between atoms: _351  and  _353
REMARK  131  A    between atoms: _353  and  _354
REMARK  132  A    between atoms: _353  and  _356
REMARK  133  A    between atoms: _356  and  _357
REMARK  134  A    between atoms: _357  and  _358
REMARK  135  A    between atoms: _360  and  _362
REMARK  136  A    between atoms: _362  and  _363
REMARK  137  A    between atoms: _362  and  _365
REMARK  138  A    between atoms: _365  and  _366
REMARK  139  A    between atoms: _369  and  _371
REMARK  140  A    between atoms: _371  and  _372
REMARK  141  A    between atoms: _371  and  _374
REMARK  142  A    between atoms: _374  and  _375
REMARK  143  A    between atoms: _380  and  _382
REMARK  144  A    between atoms: _382  and  _383
REMARK  145  A    between atoms: _382  and  _385
REMARK  146  A    between atoms: _385  and  _386
REMARK  147  A    between atoms: _386  and  _387
REMARK  148  A    between atoms: _392  and  _394
REMARK  149  A    between atoms: _394  and  _395
REMARK  150  A    between atoms: _394  and  _397
REMARK  151  A    between atoms: _397  and  _398
REMARK  152  A    between atoms: _408  and  _410
REMARK  153  A    between atoms: _410  and  _411
REMARK  154  A    between atoms: _413  and  _415
REMARK  155  A    between atoms: _415  and  _416
REMARK  156  A    between atoms: _415  and  _418
REMARK  157  A    between atoms: _418  and  _419
REMARK                            x       y       z     vdW  Elec       q    Type
REMARK                         _______ _______ _______ _____ _____    ______ ____
ROOT
ATOM      1  CG  LYS A   1     -17.543  -1.244  27.868  0.00  0.00    -0.000 C 
ENDROOT
BRANCH   1   2
ATOM      2  CB  LYS A   1     -16.860  -0.174  27.008  0.00  0.00    +0.025 C 
BRANCH   2   3
ATOM      3  CA  LYS A   1     -16.217  -0.735  25.710  0.00  0.00    +0.133 C 
BRANCH   3   4
ATOM      4  N   LYS A   1     -15.454  -1.921  25.973  0.00  0.00    -0.239 NA
ATOM      5  H   LYS A   1     -14.867  -1.939  26.831  0.00  0.00    +0.142 HD
ENDBRANCH   3   4
BRANCH   3   6
ATOM      6  C   LYS A   1     -15.250   0.279  25.134  0.00  0.00    +0.224 C 
ATOM      7  O   LYS A   1     -14.175   0.514  25.714  0.00  0.00    -0.287 OA
ENDBRANCH   3   6
ENDBRANCH   2   3
ENDBRANCH   1   2
BRANCH   1   8
ATOM      8  CD  LYS A   1     -18.344  -0.617  28.996  0.00  0.00    -0.024 C 
BRANCH   8   9
ATOM      9  CE  LYS A   1     -19.619   0.054  28.494  0.00  0.00    -0.086 C 
BRANCH   9  10
ATOM     10  NZ  LYS A   1     -20.739  -0.879  28.646  0.00  0.00    +0.380 N 
ATOM     11  HZ1 LYS A   1     -20.845  -1.130  29.650  0.00  0.00    -0.089 HD
ATOM     12  HZ2 LYS A   1     -21.612  -0.429  28.306  0.00  0.00    -0.089 HD
ATOM     13  HZ3 LYS A   1     -20.551  -1.738  28.090  0.00  0.00    -0.089 HD
ENDBRANCH   9  10
ENDBRANCH   8   9
ENDBRANCH   1   8
TORSDOF 7
REMARK  Name = ../refined-set-2016/4jfs/4jfs_pocket.pdb
REMARK  157 active torsions:
REMARK  status: ('A' for Active; 'I' for Inactive)
REMARK    1  A    between atoms: _1  and  _3
REMARK    2  A    between atoms: _3  and  _4
REMARK    3  A    between atoms: _3  and  _6
REMARK    4  A    between atoms: _6  and  _7
REMARK    5  A    between atoms: _13  and  _15
REMARK    6  A    between atoms: _15  and  _16
REMARK    7  A    between atoms: _15  and  _18
REMARK    8  A    between atoms: _18  and  _19
REMARK    9  A    between atoms: _22  and  _24
REMARK   10  A    between atoms: _24  and  _25
REMARK   11  A    between atoms: _24  and  _27
REMARK   12  A    between atoms: _27  and  _28
REMARK   13  A    between atoms: _33  and  _35
REMARK   14  A    between atoms: _35  and  _36
REMARK   15  A    between atoms: _35  and  _38
REMARK   16  A    between atoms: _38  and  _39
REMARK   17  A    between atoms: _44  and  _45
REMARK   18  A    between atoms: _47  and  _49
REMARK   19  A    between atoms: _49  and  _50
REMARK   20  A    between atoms: _53  and  _55
REMARK   21  A    between atoms: _55  and  _56
REMARK   22  A    between atoms: _59  and  _61
REMARK   23  A    between atoms: _61  and  _62
REMARK   24  A    between atoms: _61  and  _64
REMARK   25  A    between atoms: _64  and  _65
REMARK   26  A    between atoms: _65  and  _66
REMARK   27  A    between atoms: _69  and  _71
REMARK   28  A    between atoms: _71  and  _72
REMARK   29  A    between atoms: _71  and  _74
REMARK   30  A    between atoms: _74  and  _75
REMARK   31  A    between atoms: _85  and  _87
REMARK   32  A    between atoms: _87  and  _88
REMARK   33  A    between atoms: _87  and  _90
REMARK   34  A    between atoms: _90  and  _91
REMARK   35  A    between atoms: _101  and  _103
REMARK   36  A    between atoms: _103  and  _104
REMARK   37  A    between atoms: _103  and  _106
REMARK   38  A    between atoms: _106  and  _107
REMARK   39  A    between atoms: _107  and  _108
REMARK   40  A    between atoms: _108  and  _109
REMARK   41  A    between atoms: _109  and  _110
REMARK   42  A    between atoms: _114  and  _116
REMARK   43  A    between atoms: _116  and  _117
REMARK   44  A    between atoms: _116  and  _119
REMARK   45  A    between atoms: _119  and  _120
REMARK   46  A    between atoms: _123  and  _125
REMARK   47  A    between atoms: _125  and  _126
REMARK   48  A    between atoms: _125  and  _128
REMARK   49  A    between atoms: _128  and  _129
REMARK   50  A    between atoms: _134  and  _136
REMARK   51  A    between atoms: _136  and  _137
REMARK   52  A    between atoms: _136  and  _139
REMARK   53  A    between atoms: _139  and  _140
REMARK   54  A    between atoms: _145  and  _147
REMARK   55  A    between atoms: _147  and  _148
REMARK   56  A    between atoms: _147  and  _150
REMARK   57  A    between atoms: _150  and  _151
REMARK   58  A    between atoms: _156  and  _157
REMARK   59  A    between atoms: _159  and  _161
REMARK   60  A    between atoms: _161  and  _162
REMARK   61  A    between atoms: _161  and  _164
REMARK   62  A    between atoms: _164  and  _165
REMARK   63  A    between atoms: _167  and  _169
REMARK   64  A    between atoms: _169  and  _170
REMARK   65  A    between atoms: _169  and  _172
REMARK   66  A    between atoms: _172  and  _173
REMARK   67  A    between atoms: _173  and  _174
REMARK   68  A    between atoms: _176  and  _178
REMARK   69  A    between atoms: _178  and  _179
REMARK   70  A    between atoms: _178  and  _181
REMARK   71  A    between atoms: _181  and  _182
REMARK   72  A    between atoms: _192  and  _194
REMARK   73  A    between atoms: _194  and  _195
REMARK   74  A    between atoms: _194  and  _197
REMARK   75  A    between atoms: _197  and  _198
REMARK   76  A    between atoms: _208  and  _210
REMARK   77  A    between atoms: _210  and  _211
REMARK   78  A    between atoms: _210  and  _213
REMARK   79  A    between atoms: _213  and  _214
REMARK   80  A    between atoms: _220  and  _222
REMARK   81  A    between atoms: _222  and  _223
REMARK   82  A    between atoms: _222  and  _225
REMARK   83  A    between atoms: _225  and  _226
REMARK   84  A    between atoms: _229  and  _231
REMARK   85  A    between atoms: _231  and  _232
REMARK   86  A    between atoms: _234  and  _236
REMARK   87  A    between atoms: _236  and  _237
REMARK   88  A    between atoms: _236  and  _239
REMARK   89  A    between atoms: _239  and  _240
REMARK   90  A    between atoms: _243  and  _245
REMARK   91  A    between atoms: _245  and  _246
REMARK   92  A    between atoms: _245  and  _248
REMARK   93  A    between atoms: _248  and  _249
REMARK   94  A    between atoms: _259  and  _261
REMARK   95  A    between atoms: _261  and  _262
REMARK   96  A    between atoms: _261  and  _264
REMARK   97  A    between atoms: _264  and  _265
REMARK   98  A    between atoms: _270  and  _272
REMARK   99  A    between atoms: _272  and  _273
REMARK  100  A    between atoms: _272  and  _275
REMARK  101  A    between atoms: _275  and  _276
REMARK  102  A    between atoms: _276  and  _277
REMARK  103  A    between atoms: _277  and  _278
REMARK  104  A    between atoms: _287  and  _289
REMARK  105  A    between atoms: _289  and  _290
REMARK  106  A    between atoms: _289  and  _292
REMARK  107  A    between atoms: _292  and  _293
REMARK  108  A    between atoms: _293  and  _294
REMARK  109  A    between atoms: _294  and  _295
REMARK  110  A    between atoms: _304  and  _306
REMARK  111  A    between atoms: _306  and  _307
REMARK  112  A    between atoms: _306  and  _309
REMARK  113  A    between atoms: _309  and  _310
REMARK  114  A    between atoms: _312  and  _314
REMARK  115  A    between atoms: _314  and  _315
REMARK  116  A    between atoms: _317  and  _319
REMARK  117  A    between atoms: _319  and  _320
REMARK  118  A    between atoms: _319  and  _322
REMARK  119  A    between atoms: _322  and  _323
REMARK  120  A    between atoms: _323  and  _324
REMARK  121  A    between atoms: _327  and  _329
REMARK  122  A    between atoms: _329  and  _330
REMARK  123  A    between atoms: _329  and  _332
REMARK  124  A    between atoms: _332  and  _333
REMARK  125  A    between atoms: _333  and  _334
REMARK  126  A    between atoms: _334  and  _335
REMARK  127  A    between atoms: _344  and  _346
REMARK  128  A    between atoms: _346  and  _347
REMARK  129  A    between atoms: _346  and  _349
REMARK  130  A    between atoms: _351  and  _353
REMARK  131  A    between atoms: _353  and  _354
REMARK  132  A    between atoms: _353  and  _356
REMARK  133  A    between atoms: _356  and  _357
REMARK  134  A    between atoms: _357  and  _358
REMARK  135  A    between atoms: _360  and  _362
REMARK  136  A    between atoms: _362  and  _363
REMARK  137  A    between atoms: _362  and  _365
REMARK  138  A    between atoms: _365  and  _366
REMARK  139  A    between atoms: _369  and  _371
REMARK  140  A    between atoms: _371  and  _372
REMARK  141  A    between atoms: _371  and  _374
REMARK  142  A    between atoms: _374  and  _375
REMARK  143  A    between atoms: _380  and  _382
REMARK  144  A    between atoms: _382  and  _383
REMARK  145  A    between atoms: _382  and  _385
REMARK  146  A    between atoms: _385  and  _386
REMARK  147  A    between atoms: _386  and  _387
REMARK  148  A    between atoms: _392  and  _394
REMARK  149  A    between atoms: _394  and  _395
REMARK  150  A    between atoms: _394  and  _397
REMARK  151  A    between atoms: _397  and  _398
REMARK  152  A    between atoms: _408  and  _410
REMARK  153  A    between atoms: _410  and  _411
REMARK  154  A    between atoms: _413  and  _415
REMARK  155  A    between atoms: _415  and  _416
REMARK  156  A    between atoms: _415  and  _418
REMARK  157  A    between atoms: _418  and  _419
REMARK                            x       y       z     vdW  Elec       q    Type
REMARK                         _______ _______ _______ _____ _____    ______ ____
ROOT
ATOM      1  CA  THR A   1     -14.874   5.482  23.065  0.00  0.00    +0.160 C 
ENDROOT
BRANCH   1   2
ATOM      2  N   THR A   1     -14.438   4.104  23.346  0.00  0.00    -0.237 NA
ATOM      3  H   THR A   1     -13.499   3.939  23.762  0.00  0.00    +0.142 HD
ENDBRANCH   1   2
BRANCH   1   4
ATOM      4  CB  THR A   1     -13.924   6.551  23.634  0.00  0.00    +0.134 C 
ATOM      5  CG2 THR A   1     -13.905   6.535  25.125  0.00  0.00    +0.034 C 
BRANCH   4   6
ATOM      6  OG1 THR A   1     -12.592   6.278  23.199  0.00  0.00    -0.383 OA
ATOM      7  HG1 THR A   1     -12.559   6.297  22.210  0.00  0.00    +0.210 HD
ENDBRANCH   4   6
ENDBRANCH   1   4
BRANCH   1   8
ATOM      8  C   THR A   1     -14.978   5.690  21.543  0.00  0.00    +0.227 C 
ATOM      9  O   THR A   1     -13.996   5.943  20.895  0.00  0.00    -0.287 OA
ENDBRANCH   1   8
TORSDOF 4
REMARK  Name = ../refined-set-2016/4jfs/4jfs_pocket.pdb
REMARK  157 active torsions:
REMARK  status: ('A' for Active; 'I' for Inactive)
REMARK    1  A    between atoms: _1  and  _3
REMARK    2  A    between atoms: _3  and  _4
REMARK    3  A    between atoms: _3  and  _6
REMARK    4  A    between atoms: _6  and  _7
REMARK    5  A    between atoms: _13  and  _15
REMARK    6  A    between atoms: _15  and  _16
REMARK    7  A    between atoms: _15  and  _18
REMARK    8  A    between atoms: _18  and  _19
REMARK    9  A    between atoms: _22  and  _24
REMARK   10  A    between atoms: _24  and  _25
REMARK   11  A    between atoms: _24  and  _27
REMARK   12  A    between atoms: _27  and  _28
REMARK   13  A    between atoms: _33  and  _35
REMARK   14  A    between atoms: _35  and  _36
REMARK   15  A    between atoms: _35  and  _38
REMARK   16  A    between atoms: _38  and  _39
REMARK   17  A    between atoms: _44  and  _45
REMARK   18  A    between atoms: _47  and  _49
REMARK   19  A    between atoms: _49  and  _50
REMARK   20  A    between atoms: _53  and  _55
REMARK   21  A    between atoms: _55  and  _56
REMARK   22  A    between atoms: _59  and  _61
REMARK   23  A    between atoms: _61  and  _62
REMARK   24  A    between atoms: _61  and  _64
REMARK   25  A    between atoms: _64  and  _65
REMARK   26  A    between atoms: _65  and  _66
REMARK   27  A    between atoms: _69  and  _71
REMARK   28  A    between atoms: _71  and  _72
REMARK   29  A    between atoms: _71  and  _74
REMARK   30  A    between atoms: _74  and  _75
REMARK   31  A    between atoms: _85  and  _87
REMARK   32  A    between atoms: _87  and  _88
REMARK   33  A    between atoms: _87  and  _90
REMARK   34  A    between atoms: _90  and  _91
REMARK   35  A    between atoms: _101  and  _103
REMARK   36  A    between atoms: _103  and  _104
REMARK   37  A    between atoms: _103  and  _106
REMARK   38  A    between atoms: _106  and  _107
REMARK   39  A    between atoms: _107  and  _108
REMARK   40  A    between atoms: _108  and  _109
REMARK   41  A    between atoms: _109  and  _110
REMARK   42  A    between atoms: _114  and  _116
REMARK   43  A    between atoms: _116  and  _117
REMARK   44  A    between atoms: _116  and  _119
REMARK   45  A    between atoms: _119  and  _120
REMARK   46  A    between atoms: _123  and  _125
REMARK   47  A    between atoms: _125  and  _126
REMARK   48  A    between atoms: _125  and  _128
REMARK   49  A    between atoms: _128  and  _129
REMARK   50  A    between atoms: _134  and  _136
REMARK   51  A    between atoms: _136  and  _137
REMARK   52  A    between atoms: _136  and  _139
REMARK   53  A    between atoms: _139  and  _140
REMARK   54  A    between atoms: _145  and  _147
REMARK   55  A    between atoms: _147  and  _148
REMARK   56  A    between atoms: _147  and  _150
REMARK   57  A    between atoms: _150  and  _151
REMARK   58  A    between atoms: _156  and  _157
REMARK   59  A    between atoms: _159  and  _161
REMARK   60  A    between atoms: _161  and  _162
REMARK   61  A    between atoms: _161  and  _164
REMARK   62  A    between atoms: _164  and  _165
REMARK   63  A    between atoms: _167  and  _169
REMARK   64  A    between atoms: _169  and  _170
REMARK   65  A    between atoms: _169  and  _172
REMARK   66  A    between atoms: _172  and  _173
REMARK   67  A    between atoms: _173  and  _174
REMARK   68  A    between atoms: _176  and  _178
REMARK   69  A    between atoms: _178  and  _179
REMARK   70  A    between atoms: _178  and  _181
REMARK   71  A    between atoms: _181  and  _182
REMARK   72  A    between atoms: _192  and  _194
REMARK   73  A    between atoms: _194  and  _195
REMARK   74  A    between atoms: _194  and  _197
REMARK   75  A    between atoms: _197  and  _198
REMARK   76  A    between atoms: _208  and  _210
REMARK   77  A    between atoms: _210  and  _211
REMARK   78  A    between atoms: _210  and  _213
REMARK   79  A    between atoms: _213  and  _214
REMARK   80  A    between atoms: _220  and  _222
REMARK   81  A    between atoms: _222  and  _223
REMARK   82  A    between atoms: _222  and  _225
REMARK   83  A    between atoms: _225  and  _226
REMARK   84  A    between atoms: _229  and  _231
REMARK   85  A    between atoms: _231  and  _232
REMARK   86  A    between atoms: _234  and  _236
REMARK   87  A    between atoms: _236  and  _237
REMARK   88  A    between atoms: _236  and  _239
REMARK   89  A    between atoms: _239  and  _240
REMARK   90  A    between atoms: _243  and  _245
REMARK   91  A    between atoms: _245  and  _246
REMARK   92  A    between atoms: _245  and  _248
REMARK   93  A    between atoms: _248  and  _249
REMARK   94  A    between atoms: _259  and  _261
REMARK   95  A    between atoms: _261  and  _262
REMARK   96  A    between atoms: _261  and  _264
REMARK   97  A    between atoms: _264  and  _265
REMARK   98  A    between atoms: _270  and  _272
REMARK   99  A    between atoms: _272  and  _273
REMARK  100  A    between atoms: _272  and  _275
REMARK  101  A    between atoms: _275  and  _276
REMARK  102  A    between atoms: _276  and  _277
REMARK  103  A    between atoms: _277  and  _278
REMARK  104  A    between atoms: _287  and  _289
REMARK  105  A    between atoms: _289  and  _290
REMARK  106  A    between atoms: _289  and  _292
REMARK  107  A    between atoms: _292  and  _293
REMARK  108  A    between atoms: _293  and  _294
REMARK  109  A    between atoms: _294  and  _295
REMARK  110  A    between atoms: _304  and  _306
REMARK  111  A    between atoms: _306  and  _307
REMARK  112  A    between atoms: _306  and  _309
REMARK  113  A    between atoms: _309  and  _310
REMARK  114  A    between atoms: _312  and  _314
REMARK  115  A    between atoms: _314  and  _315
REMARK  116  A    between atoms: _317  and  _319
REMARK  117  A    between atoms: _319  and  _320
REMARK  118  A    between atoms: _319  and  _322
REMARK  119  A    between atoms: _322  and  _323
REMARK  120  A    between atoms: _323  and  _324
REMARK  121  A    between atoms: _327  and  _329
REMARK  122  A    between atoms: _329  and  _330
REMARK  123  A    between atoms: _329  and  _332
REMARK  124  A    between atoms: _332  and  _333
REMARK  125  A    between atoms: _333  and  _334
REMARK  126  A    between atoms: _334  and  _335
REMARK  127  A    between atoms: _344  and  _346
REMARK  128  A    between atoms: _346  and  _347
REMARK  129  A    between atoms: _346  and  _349
REMARK  130  A    between atoms: _351  and  _353
REMARK  131  A    between atoms: _353  and  _354
REMARK  132  A    between atoms: _353  and  _356
REMARK  133  A    between atoms: _356  and  _357
REMARK  134  A    between atoms: _357  and  _358
REMARK  135  A    between atoms: _360  and  _362
REMARK  136  A    between atoms: _362  and  _363
REMARK  137  A    between atoms: _362  and  _365
REMARK  138  A    between atoms: _365  and  _366
REMARK  139  A    between atoms: _369  and  _371
REMARK  140  A    between atoms: _371  and  _372
REMARK  141  A    between atoms: _371  and  _374
REMARK  142  A    between atoms: _374  and  _375
REMARK  143  A    between atoms: _380  and  _382
REMARK  144  A    between atoms: _382  and  _383
REMARK  145  A    between atoms: _382  and  _385
REMARK  146  A    between atoms: _385  and  _386
REMARK  147  A    between atoms: _386  and  _387
REMARK  148  A    between atoms: _392  and  _394
REMARK  149  A    between atoms: _394  and  _395
REMARK  150  A    between atoms: _394  and  _397
REMARK  151  A    between atoms: _397  and  _398
REMARK  152  A    between atoms: _408  and  _410
REMARK  153  A    between atoms: _410  and  _411
REMARK  154  A    between atoms: _413  and  _415
REMARK  155  A    between atoms: _415  and  _416
REMARK  156  A    between atoms: _415  and  _418
REMARK  157  A    between atoms: _418  and  _419
REMARK                            x       y       z     vdW  Elec       q    Type
REMARK                         _______ _______ _______ _____ _____    ______ ____
ROOT
ATOM      1  C   HIS A   1     -16.062  13.018  23.213  0.00  0.00    +0.239 C 
ATOM      2  N   HIS A   2     -16.030  13.797  24.299  0.00  0.00    -0.298 N 
ATOM      3  H   HIS A   2     -15.605  13.433  25.176  0.00  0.00    +0.150 HD
ATOM      4  O   HIS A   1     -16.543  13.391  22.134  0.00  0.00    -0.274 OA
ENDROOT
BRANCH   1   5
ATOM      5  CA  HIS A   1     -15.566  11.540  23.387  0.00  0.00    +0.151 C 
BRANCH   5   6
ATOM      6  N   HIS A   1     -15.516  10.956  22.055  0.00  0.00    -0.238 NA
ATOM      7  H   HIS A   1     -14.668  11.101  21.470  0.00  0.00    +0.142 HD
ENDBRANCH   5   6
BRANCH   5   8
ATOM      8  CB  HIS A   1     -14.215  11.474  24.119  0.00  0.00    +0.074 C 
BRANCH   8   9
ATOM      9  CG  HIS A   1     -14.344  11.487  25.619  0.00  0.00    +0.082 A 
ATOM     10  CD2 HIS A   1     -14.536  10.475  26.499  0.00  0.00    +0.115 A 
ATOM     11  NE2 HIS A   1     -14.583  11.021  27.739  0.00  0.00    -0.221 NA
ATOM     12  CE1 HIS A   1     -14.465  12.336  27.643  0.00  0.00    +0.199 A 
ATOM     13  ND1 HIS A   1     -14.286  12.635  26.373  0.00  0.00    -0.227 NA
ENDBRANCH   8   9
ENDBRANCH   5   8
ENDBRANCH   1   5
BRANCH   2  14
ATOM     14  CA  HIS A   2     -16.590  15.171  24.276  0.00  0.00    +0.143 C 
BRANCH  14  15
ATOM     15  C   HIS A   2     -15.988  16.011  23.183  0.00  0.00    +0.227 C 
ATOM     16  O   HIS A   2     -16.671  16.812  22.587  0.00  0.00    -0.286 OA
ENDBRANCH  14  15
BRANCH  14  17
ATOM     17  CB  HIS A   2     -16.417  15.899  25.633  0.00  0.00    +0.075 C 
BRANCH  17  18
ATOM     18  CG  HIS A   2     -16.824  15.097  26.844  0.00  0.00    +0.082 A 
ATOM     19  CD2 HIS A   2     -16.326  15.079  28.100  0.00  0.00    +0.115 A 
ATOM     20  NE2 HIS A   2     -17.068  14.186  28.826  0.00  0.00    -0.221 NA
ATOM     21  CE1 HIS A   2     -18.004  13.685  28.047  0.00  0.00    +0.199 A 
ATOM     22  ND1 HIS A   2     -17.875  14.211  26.848  0.00  0.00    -0.227 NA
ENDBRANCH  17  18
ENDBRANCH  14  17
ENDBRANCH   2  14
TORSDOF 8
REMARK  Name = ../refined-set-2016/4jfs/4jfs_pocket.pdb
REMARK  157 active torsions:
REMARK  status: ('A' for Active; 'I' for Inactive)
REMARK    1  A    between atoms: _1  and  _3
REMARK    2  A    between atoms: _3  and  _4
REMARK    3  A    between atoms: _3  and  _6
REMARK    4  A    between atoms: _6  and  _7
REMARK    5  A    between atoms: _13  and  _15
REMARK    6  A    between atoms: _15  and  _16
REMARK    7  A    between atoms: _15  and  _18
REMARK    8  A    between atoms: _18  and  _19
REMARK    9  A    between atoms: _22  and  _24
REMARK   10  A    between atoms: _24  and  _25
REMARK   11  A    between atoms: _24  and  _27
REMARK   12  A    between atoms: _27  and  _28
REMARK   13  A    between atoms: _33  and  _35
REMARK   14  A    between atoms: _35  and  _36
REMARK   15  A    between atoms: _35  and  _38
REMARK   16  A    between atoms: _38  and  _39
REMARK   17  A    between atoms: _44  and  _45
REMARK   18  A    between atoms: _47  and  _49
REMARK   19  A    between atoms: _49  and  _50
REMARK   20  A    between atoms: _53  and  _55
REMARK   21  A    between atoms: _55  and  _56
REMARK   22  A    between atoms: _59  and  _61
REMARK   23  A    between atoms: _61  and  _62
REMARK   24  A    between atoms: _61  and  _64
REMARK   25  A    between atoms: _64  and  _65
REMARK   26  A    between atoms: _65  and  _66
REMARK   27  A    between atoms: _69  and  _71
REMARK   28  A    between atoms: _71  and  _72
REMARK   29  A    between atoms: _71  and  _74
REMARK   30  A    between atoms: _74  and  _75
REMARK   31  A    between atoms: _85  and  _87
REMARK   32  A    between atoms: _87  and  _88
REMARK   33  A    between atoms: _87  and  _90
REMARK   34  A    between atoms: _90  and  _91
REMARK   35  A    between atoms: _101  and  _103
REMARK   36  A    between atoms: _103  and  _104
REMARK   37  A    between atoms: _103  and  _106
REMARK   38  A    between atoms: _106  and  _107
REMARK   39  A    between atoms: _107  and  _108
REMARK   40  A    between atoms: _108  and  _109
REMARK   41  A    between atoms: _109  and  _110
REMARK   42  A    between atoms: _114  and  _116
REMARK   43  A    between atoms: _116  and  _117
REMARK   44  A    between atoms: _116  and  _119
REMARK   45  A    between atoms: _119  and  _120
REMARK   46  A    between atoms: _123  and  _125
REMARK   47  A    between atoms: _125  and  _126
REMARK   48  A    between atoms: _125  and  _128
REMARK   49  A    between atoms: _128  and  _129
REMARK   50  A    between atoms: _134  and  _136
REMARK   51  A    between atoms: _136  and  _137
REMARK   52  A    between atoms: _136  and  _139
REMARK   53  A    between atoms: _139  and  _140
REMARK   54  A    between atoms: _145  and  _147
REMARK   55  A    between atoms: _147  and  _148
REMARK   56  A    between atoms: _147  and  _150
REMARK   57  A    between atoms: _150  and  _151
REMARK   58  A    between atoms: _156  and  _157
REMARK   59  A    between atoms: _159  and  _161
REMARK   60  A    between atoms: _161  and  _162
REMARK   61  A    between atoms: _161  and  _164
REMARK   62  A    between atoms: _164  and  _165
REMARK   63  A    between atoms: _167  and  _169
REMARK   64  A    between atoms: _169  and  _170
REMARK   65  A    between atoms: _169  and  _172
REMARK   66  A    between atoms: _172  and  _173
REMARK   67  A    between atoms: _173  and  _174
REMARK   68  A    between atoms: _176  and  _178
REMARK   69  A    between atoms: _178  and  _179
REMARK   70  A    between atoms: _178  and  _181
REMARK   71  A    between atoms: _181  and  _182
REMARK   72  A    between atoms: _192  and  _194
REMARK   73  A    between atoms: _194  and  _195
REMARK   74  A    between atoms: _194  and  _197
REMARK   75  A    between atoms: _197  and  _198
REMARK   76  A    between atoms: _208  and  _210
REMARK   77  A    between atoms: _210  and  _211
REMARK   78  A    between atoms: _210  and  _213
REMARK   79  A    between atoms: _213  and  _214
REMARK   80  A    between atoms: _220  and  _222
REMARK   81  A    between atoms: _222  and  _223
REMARK   82  A    between atoms: _222  and  _225
REMARK   83  A    between atoms: _225  and  _226
REMARK   84  A    between atoms: _229  and  _231
REMARK   85  A    between atoms: _231  and  _232
REMARK   86  A    between atoms: _234  and  _236
REMARK   87  A    between atoms: _236  and  _237
REMARK   88  A    between atoms: _236  and  _239
REMARK   89  A    between atoms: _239  and  _240
REMARK   90  A    between atoms: _243  and  _245
REMARK   91  A    between atoms: _245  and  _246
REMARK   92  A    between atoms: _245  and  _248
REMARK   93  A    between atoms: _248  and  _249
REMARK   94  A    between atoms: _259  and  _261
REMARK   95  A    between atoms: _261  and  _262
REMARK   96  A    between atoms: _261  and  _264
REMARK   97  A    between atoms: _264  and  _265
REMARK   98  A    between atoms: _270  and  _272
REMARK   99  A    between atoms: _272  and  _273
REMARK  100  A    between atoms: _272  and  _275
REMARK  101  A    between atoms: _275  and  _276
REMARK  102  A    between atoms: _276  and  _277
REMARK  103  A    between atoms: _277  and  _278
REMARK  104  A    between atoms: _287  and  _289
REMARK  105  A    between atoms: _289  and  _290
REMARK  106  A    between atoms: _289  and  _292
REMARK  107  A    between atoms: _292  and  _293
REMARK  108  A    between atoms: _293  and  _294
REMARK  109  A    between atoms: _294  and  _295
REMARK  110  A    between atoms: _304  and  _306
REMARK  111  A    between atoms: _306  and  _307
REMARK  112  A    between atoms: _306  and  _309
REMARK  113  A    between atoms: _309  and  _310
REMARK  114  A    between atoms: _312  and  _314
REMARK  115  A    between atoms: _314  and  _315
REMARK  116  A    between atoms: _317  and  _319
REMARK  117  A    between atoms: _319  and  _320
REMARK  118  A    between atoms: _319  and  _322
REMARK  119  A    between atoms: _322  and  _323
REMARK  120  A    between atoms: _323  and  _324
REMARK  121  A    between atoms: _327  and  _329
REMARK  122  A    between atoms: _329  and  _330
REMARK  123  A    between atoms: _329  and  _332
REMARK  124  A    between atoms: _332  and  _333
REMARK  125  A    between atoms: _333  and  _334
REMARK  126  A    between atoms: _334  and  _335
REMARK  127  A    between atoms: _344  and  _346
REMARK  128  A    between atoms: _346  and  _347
REMARK  129  A    between atoms: _346  and  _349
REMARK  130  A    between atoms: _351  and  _353
REMARK  131  A    between atoms: _353  and  _354
REMARK  132  A    between atoms: _353  and  _356
REMARK  133  A    between atoms: _356  and  _357
REMARK  134  A    between atoms: _357  and  _358
REMARK  135  A    between atoms: _360  and  _362
REMARK  136  A    between atoms: _362  and  _363
REMARK  137  A    between atoms: _362  and  _365
REMARK  138  A    between atoms: _365  and  _366
REMARK  139  A    between atoms: _369  and  _371
REMARK  140  A    between atoms: _371  and  _372
REMARK  141  A    between atoms: _371  and  _374
REMARK  142  A    between atoms: _374  and  _375
REMARK  143  A    between atoms: _380  and  _382
REMARK  144  A    between atoms: _382  and  _383
REMARK  145  A    between atoms: _382  and  _385
REMARK  146  A    between atoms: _385  and  _386
REMARK  147  A    between atoms: _386  and  _387
REMARK  148  A    between atoms: _392  and  _394
REMARK  149  A    between atoms: _394  and  _395
REMARK  150  A    between atoms: _394  and  _397
REMARK  151  A    between atoms: _397  and  _398
REMARK  152  A    between atoms: _408  and  _410
REMARK  153  A    between atoms: _410  and  _411
REMARK  154  A    between atoms: _413  and  _415
REMARK  155  A    between atoms: _415  and  _416
REMARK  156  A    between atoms: _415  and  _418
REMARK  157  A    between atoms: _418  and  _419
REMARK                            x       y       z     vdW  Elec       q    Type
REMARK                         _______ _______ _______ _____ _____    ______ ____
ROOT
ATOM      1  CG  TYR A   1     -17.725   6.295  25.728  0.00  0.00    -0.020 A 
ATOM      2  CD2 TYR A   1     -17.683   6.571  27.079  0.00  0.00    -0.001 A 
ATOM      3  CE2 TYR A   1     -17.558   7.899  27.561  0.00  0.00    +0.036 A 
ATOM      4  CZ  TYR A   1     -17.502   8.934  26.676  0.00  0.00    +0.134 A 
ATOM      5  CE1 TYR A   1     -17.503   8.676  25.295  0.00  0.00    +0.036 A 
ATOM      6  CD1 TYR A   1     -17.649   7.383  24.843  0.00  0.00    -0.001 A 
ENDROOT
BRANCH   4   7
ATOM      7  OH  TYR A   1     -17.455  10.217  27.118  0.00  0.00    -0.506 OA
ATOM      8  HH  TYR A   1     -18.264  10.410  27.655  0.00  0.00    +0.292 HD
ENDBRANCH   4   7
BRANCH   1   9
ATOM      9  CB  TYR A   1     -17.854   4.865  25.222  0.00  0.00    +0.051 C 
BRANCH   9  10
ATOM     10  CA  TYR A   1     -19.191   4.546  24.446  0.00  0.00    +0.137 C 
BRANCH  10  11
ATOM     11  N   TYR A   1     -19.063   3.281  23.703  0.00  0.00    -0.239 NA
ATOM     12  H   TYR A   1     -18.108   2.902  23.542  0.00  0.00    +0.142 HD
ENDBRANCH  10  11
BRANCH  10  13
ATOM     13  C   TYR A   1     -19.468   5.652  23.433  0.00  0.00    +0.224 C 
ATOM     14  O   TYR A   1     -18.933   5.645  22.353  0.00  0.00    -0.287 OA
ENDBRANCH  10  13
ENDBRANCH   9  10
ENDBRANCH   1   9
TORSDOF 5
REMARK  Name = ../refined-set-2016/4jfs/4jfs_pocket.pdb
REMARK  157 active torsions:
REMARK  status: ('A' for Active; 'I' for Inactive)
REMARK    1  A    between atoms: _1  and  _3
REMARK    2  A    between atoms: _3  and  _4
REMARK    3  A    between atoms: _3  and  _6
REMARK    4  A    between atoms: _6  and  _7
REMARK    5  A    between atoms: _13  and  _15
REMARK    6  A    between atoms: _15  and  _16
REMARK    7  A    between atoms: _15  and  _18
REMARK    8  A    between atoms: _18  and  _19
REMARK    9  A    between atoms: _22  and  _24
REMARK   10  A    between atoms: _24  and  _25
REMARK   11  A    between atoms: _24  and  _27
REMARK   12  A    between atoms: _27  and  _28
REMARK   13  A    between atoms: _33  and  _35
REMARK   14  A    between atoms: _35  and  _36
REMARK   15  A    between atoms: _35  and  _38
REMARK   16  A    between atoms: _38  and  _39
REMARK   17  A    between atoms: _44  and  _45
REMARK   18  A    between atoms: _47  and  _49
REMARK   19  A    between atoms: _49  and  _50
REMARK   20  A    between atoms: _53  and  _55
REMARK   21  A    between atoms: _55  and  _56
REMARK   22  A    between atoms: _59  and  _61
REMARK   23  A    between atoms: _61  and  _62
REMARK   24  A    between atoms: _61  and  _64
REMARK   25  A    between atoms: _64  and  _65
REMARK   26  A    between atoms: _65  and  _66
REMARK   27  A    between atoms: _69  and  _71
REMARK   28  A    between atoms: _71  and  _72
REMARK   29  A    between atoms: _71  and  _74
REMARK   30  A    between atoms: _74  and  _75
REMARK   31  A    between atoms: _85  and  _87
REMARK   32  A    between atoms: _87  and  _88
REMARK   33  A    between atoms: _87  and  _90
REMARK   34  A    between atoms: _90  and  _91
REMARK   35  A    between atoms: _101  and  _103
REMARK   36  A    between atoms: _103  and  _104
REMARK   37  A    between atoms: _103  and  _106
REMARK   38  A    between atoms: _106  and  _107
REMARK   39  A    between atoms: _107  and  _108
REMARK   40  A    between atoms: _108  and  _109
REMARK   41  A    between atoms: _109  and  _110
REMARK   42  A    between atoms: _114  and  _116
REMARK   43  A    between atoms: _116  and  _117
REMARK   44  A    between atoms: _116  and  _119
REMARK   45  A    between atoms: _119  and  _120
REMARK   46  A    between atoms: _123  and  _125
REMARK   47  A    between atoms: _125  and  _126
REMARK   48  A    between atoms: _125  and  _128
REMARK   49  A    between atoms: _128  and  _129
REMARK   50  A    between atoms: _134  and  _136
REMARK   51  A    between atoms: _136  and  _137
REMARK   52  A    between atoms: _136  and  _139
REMARK   53  A    between atoms: _139  and  _140
REMARK   54  A    between atoms: _145  and  _147
REMARK   55  A    between atoms: _147  and  _148
REMARK   56  A    between atoms: _147  and  _150
REMARK   57  A    between atoms: _150  and  _151
REMARK   58  A    between atoms: _156  and  _157
REMARK   59  A    between atoms: _159  and  _161
REMARK   60  A    between atoms: _161  and  _162
REMARK   61  A    between atoms: _161  and  _164
REMARK   62  A    between atoms: _164  and  _165
REMARK   63  A    between atoms: _167  and  _169
REMARK   64  A    between atoms: _169  and  _170
REMARK   65  A    between atoms: _169  and  _172
REMARK   66  A    between atoms: _172  and  _173
REMARK   67  A    between atoms: _173  and  _174
REMARK   68  A    between atoms: _176  and  _178
REMARK   69  A    between atoms: _178  and  _179
REMARK   70  A    between atoms: _178  and  _181
REMARK   71  A    between atoms: _181  and  _182
REMARK   72  A    between atoms: _192  and  _194
REMARK   73  A    between atoms: _194  and  _195
REMARK   74  A    between atoms: _194  and  _197
REMARK   75  A    between atoms: _197  and  _198
REMARK   76  A    between atoms: _208  and  _210
REMARK   77  A    between atoms: _210  and  _211
REMARK   78  A    between atoms: _210  and  _213
REMARK   79  A    between atoms: _213  and  _214
REMARK   80  A    between atoms: _220  and  _222
REMARK   81  A    between atoms: _222  and  _223
REMARK   82  A    between atoms: _222  and  _225
REMARK   83  A    between atoms: _225  and  _226
REMARK   84  A    between atoms: _229  and  _231
REMARK   85  A    between atoms: _231  and  _232
REMARK   86  A    between atoms: _234  and  _236
REMARK   87  A    between atoms: _236  and  _237
REMARK   88  A    between atoms: _236  and  _239
REMARK   89  A    between atoms: _239  and  _240
REMARK   90  A    between atoms: _243  and  _245
REMARK   91  A    between atoms: _245  and  _246
REMARK   92  A    between atoms: _245  and  _248
REMARK   93  A    between atoms: _248  and  _249
REMARK   94  A    between atoms: _259  and  _261
REMARK   95  A    between atoms: _261  and  _262
REMARK   96  A    between atoms: _261  and  _264
REMARK   97  A    between atoms: _264  and  _265
REMARK   98  A    between atoms: _270  and  _272
REMARK   99  A    between atoms: _272  and  _273
REMARK  100  A    between atoms: _272  and  _275
REMARK  101  A    between atoms: _275  and  _276
REMARK  102  A    between atoms: _276  and  _277
REMARK  103  A    between atoms: _277  and  _278
REMARK  104  A    between atoms: _287  and  _289
REMARK  105  A    between atoms: _289  and  _290
REMARK  106  A    between atoms: _289  and  _292
REMARK  107  A    between atoms: _292  and  _293
REMARK  108  A    between atoms: _293  and  _294
REMARK  109  A    between atoms: _294  and  _295
REMARK  110  A    between atoms: _304  and  _306
REMARK  111  A    between atoms: _306  and  _307
REMARK  112  A    between atoms: _306  and  _309
REMARK  113  A    between atoms: _309  and  _310
REMARK  114  A    between atoms: _312  and  _314
REMARK  115  A    between atoms: _314  and  _315
REMARK  116  A    between atoms: _317  and  _319
REMARK  117  A    between atoms: _319  and  _320
REMARK  118  A    between atoms: _319  and  _322
REMARK  119  A    between atoms: _322  and  _323
REMARK  120  A    between atoms: _323  and  _324
REMARK  121  A    between atoms: _327  and  _329
REMARK  122  A    between atoms: _329  and  _330
REMARK  123  A    between atoms: _329  and  _332
REMARK  124  A    between atoms: _332  and  _333
REMARK  125  A    between atoms: _333  and  _334
REMARK  126  A    between atoms: _334  and  _335
REMARK  127  A    between atoms: _344  and  _346
REMARK  128  A    between atoms: _346  and  _347
REMARK  129  A    between atoms: _346  and  _349
REMARK  130  A    between atoms: _351  and  _353
REMARK  131  A    between atoms: _353  and  _354
REMARK  132  A    between atoms: _353  and  _356
REMARK  133  A    between atoms: _356  and  _357
REMARK  134  A    between atoms: _357  and  _358
REMARK  135  A    between atoms: _360  and  _362
REMARK  136  A    between atoms: _362  and  _363
REMARK  137  A    between atoms: _362  and  _365
REMARK  138  A    between atoms: _365  and  _366
REMARK  139  A    between atoms: _369  and  _371
REMARK  140  A    between atoms: _371  and  _372
REMARK  141  A    between atoms: _371  and  _374
REMARK  142  A    between atoms: _374  and  _375
REMARK  143  A    between atoms: _380  and  _382
REMARK  144  A    between atoms: _382  and  _383
REMARK  145  A    between atoms: _382  and  _385
REMARK  146  A    between atoms: _385  and  _386
REMARK  147  A    between atoms: _386  and  _387
REMARK  148  A    between atoms: _392  and  _394
REMARK  149  A    between atoms: _394  and  _395
REMARK  150  A    between atoms: _394  and  _397
REMARK  151  A    between atoms: _397  and  _398
REMARK  152  A    between atoms: _408  and  _410
REMARK  153  A    between atoms: _410  and  _411
REMARK  154  A    between atoms: _413  and  _415
REMARK  155  A    between atoms: _415  and  _416
REMARK  156  A    between atoms: _415  and  _418
REMARK  157  A    between atoms: _418  and  _419
REMARK                            x       y       z     vdW  Elec       q    Type
REMARK                         _______ _______ _______ _____ _____    ______ ____
ROOT
ATOM      1  CA  SER A   1     -20.672  11.275  24.133  0.00  0.00    +0.163 C 
ENDROOT
BRANCH   1   2
ATOM      2  N   SER A   1     -20.393  10.000  23.470  0.00  0.00    -0.237 NA
ATOM      3  H   SER A   1     -19.621   9.963  22.774  0.00  0.00    +0.142 HD
ENDBRANCH   1   2
BRANCH   1   4
ATOM      4  C   SER A   1     -21.673  12.091  23.347  0.00  0.00    +0.227 C 
ATOM      5  O   SER A   1     -21.435  12.414  22.200  0.00  0.00    -0.287 OA
ENDBRANCH   1   4
BRANCH   1   6
ATOM      6  CB  SER A   1     -19.416  12.125  24.250  0.00  0.00    +0.162 C 
BRANCH   6   7
ATOM      7  OG  SER A   1     -19.760  13.295  24.963  0.00  0.00    -0.380 OA
ATOM      8  H   SER A   1     -20.465  13.785  24.470  0.00  0.00    +0.211 HD
ENDBRANCH   6   7
ENDBRANCH   1   6
TORSDOF 4
REMARK  Name = ../refined-set-2016/4jfs/4jfs_pocket.pdb
REMARK  157 active torsions:
REMARK  status: ('A' for Active; 'I' for Inactive)
REMARK    1  A    between atoms: _1  and  _3
REMARK    2  A    between atoms: _3  and  _4
REMARK    3  A    between atoms: _3  and  _6
REMARK    4  A    between atoms: _6  and  _7
REMARK    5  A    between atoms: _13  and  _15
REMARK    6  A    between atoms: _15  and  _16
REMARK    7  A    between atoms: _15  and  _18
REMARK    8  A    between atoms: _18  and  _19
REMARK    9  A    between atoms: _22  and  _24
REMARK   10  A    between atoms: _24  and  _25
REMARK   11  A    between atoms: _24  and  _27
REMARK   12  A    between atoms: _27  and  _28
REMARK   13  A    between atoms: _33  and  _35
REMARK   14  A    between atoms: _35  and  _36
REMARK   15  A    between atoms: _35  and  _38
REMARK   16  A    between atoms: _38  and  _39
REMARK   17  A    between atoms: _44  and  _45
REMARK   18  A    between atoms: _47  and  _49
REMARK   19  A    between atoms: _49  and  _50
REMARK   20  A    between atoms: _53  and  _55
REMARK   21  A    between atoms: _55  and  _56
REMARK   22  A    between atoms: _59  and  _61
REMARK   23  A    between atoms: _61  and  _62
REMARK   24  A    between atoms: _61  and  _64
REMARK   25  A    between atoms: _64  and  _65
REMARK   26  A    between atoms: _65  and  _66
REMARK   27  A    between atoms: _69  and  _71
REMARK   28  A    between atoms: _71  and  _72
REMARK   29  A    between atoms: _71  and  _74
REMARK   30  A    between atoms: _74  and  _75
REMARK   31  A    between atoms: _85  and  _87
REMARK   32  A    between atoms: _87  and  _88
REMARK   33  A    between atoms: _87  and  _90
REMARK   34  A    between atoms: _90  and  _91
REMARK   35  A    between atoms: _101  and  _103
REMARK   36  A    between atoms: _103  and  _104
REMARK   37  A    between atoms: _103  and  _106
REMARK   38  A    between atoms: _106  and  _107
REMARK   39  A    between atoms: _107  and  _108
REMARK   40  A    between atoms: _108  and  _109
REMARK   41  A    between atoms: _109  and  _110
REMARK   42  A    between atoms: _114  and  _116
REMARK   43  A    between atoms: _116  and  _117
REMARK   44  A    between atoms: _116  and  _119
REMARK   45  A    between atoms: _119  and  _120
REMARK   46  A    between atoms: _123  and  _125
REMARK   47  A    between atoms: _125  and  _126
REMARK   48  A    between atoms: _125  and  _128
REMARK   49  A    between atoms: _128  and  _129
REMARK   50  A    between atoms: _134  and  _136
REMARK   51  A    between atoms: _136  and  _137
REMARK   52  A    between atoms: _136  and  _139
REMARK   53  A    between atoms: _139  and  _140
REMARK   54  A    between atoms: _145  and  _147
REMARK   55  A    between atoms: _147  and  _148
REMARK   56  A    between atoms: _147  and  _150
REMARK   57  A    between atoms: _150  and  _151
REMARK   58  A    between atoms: _156  and  _157
REMARK   59  A    between atoms: _159  and  _161
REMARK   60  A    between atoms: _161  and  _162
REMARK   61  A    between atoms: _161  and  _164
REMARK   62  A    between atoms: _164  and  _165
REMARK   63  A    between atoms: _167  and  _169
REMARK   64  A    between atoms: _169  and  _170
REMARK   65  A    between atoms: _169  and  _172
REMARK   66  A    between atoms: _172  and  _173
REMARK   67  A    between atoms: _173  and  _174
REMARK   68  A    between atoms: _176  and  _178
REMARK   69  A    between atoms: _178  and  _179
REMARK   70  A    between atoms: _178  and  _181
REMARK   71  A    between atoms: _181  and  _182
REMARK   72  A    between atoms: _192  and  _194
REMARK   73  A    between atoms: _194  and  _195
REMARK   74  A    between atoms: _194  and  _197
REMARK   75  A    between atoms: _197  and  _198
REMARK   76  A    between atoms: _208  and  _210
REMARK   77  A    between atoms: _210  and  _211
REMARK   78  A    between atoms: _210  and  _213
REMARK   79  A    between atoms: _213  and  _214
REMARK   80  A    between atoms: _220  and  _222
REMARK   81  A    between atoms: _222  and  _223
REMARK   82  A    between atoms: _222  and  _225
REMARK   83  A    between atoms: _225  and  _226
REMARK   84  A    between atoms: _229  and  _231
REMARK   85  A    between atoms: _231  and  _232
REMARK   86  A    between atoms: _234  and  _236
REMARK   87  A    between atoms: _236  and  _237
REMARK   88  A    between atoms: _236  and  _239
REMARK   89  A    between atoms: _239  and  _240
REMARK   90  A    between atoms: _243  and  _245
REMARK   91  A    between atoms: _245  and  _246
REMARK   92  A    between atoms: _245  and  _248
REMARK   93  A    between atoms: _248  and  _249
REMARK   94  A    between atoms: _259  and  _261
REMARK   95  A    between atoms: _261  and  _262
REMARK   96  A    between atoms: _261  and  _264
REMARK   97  A    between atoms: _264  and  _265
REMARK   98  A    between atoms: _270  and  _272
REMARK   99  A    between atoms: _272  and  _273
REMARK  100  A    between atoms: _272  and  _275
REMARK  101  A    between atoms: _275  and  _276
REMARK  102  A    between atoms: _276  and  _277
REMARK  103  A    between atoms: _277  and  _278
REMARK  104  A    between atoms: _287  and  _289
REMARK  105  A    between atoms: _289  and  _290
REMARK  106  A    between atoms: _289  and  _292
REMARK  107  A    between atoms: _292  and  _293
REMARK  108  A    between atoms: _293  and  _294
REMARK  109  A    between atoms: _294  and  _295
REMARK  110  A    between atoms: _304  and  _306
REMARK  111  A    between atoms: _306  and  _307
REMARK  112  A    between atoms: _306  and  _309
REMARK  113  A    between atoms: _309  and  _310
REMARK  114  A    between atoms: _312  and  _314
REMARK  115  A    between atoms: _314  and  _315
REMARK  116  A    between atoms: _317  and  _319
REMARK  117  A    between atoms: _319  and  _320
REMARK  118  A    between atoms: _319  and  _322
REMARK  119  A    between atoms: _322  and  _323
REMARK  120  A    between atoms: _323  and  _324
REMARK  121  A    between atoms: _327  and  _329
REMARK  122  A    between atoms: _329  and  _330
REMARK  123  A    between atoms: _329  and  _332
REMARK  124  A    between atoms: _332  and  _333
REMARK  125  A    between atoms: _333  and  _334
REMARK  126  A    between atoms: _334  and  _335
REMARK  127  A    between atoms: _344  and  _346
REMARK  128  A    between atoms: _346  and  _347
REMARK  129  A    between atoms: _346  and  _349
REMARK  130  A    between atoms: _351  and  _353
REMARK  131  A    between atoms: _353  and  _354
REMARK  132  A    between atoms: _353  and  _356
REMARK  133  A    between atoms: _356  and  _357
REMARK  134  A    between atoms: _357  and  _358
REMARK  135  A    between atoms: _360  and  _362
REMARK  136  A    between atoms: _362  and  _363
REMARK  137  A    between atoms: _362  and  _365
REMARK  138  A    between atoms: _365  and  _366
REMARK  139  A    between atoms: _369  and  _371
REMARK  140  A    between atoms: _371  and  _372
REMARK  141  A    between atoms: _371  and  _374
REMARK  142  A    between atoms: _374  and  _375
REMARK  143  A    between atoms: _380  and  _382
REMARK  144  A    between atoms: _382  and  _383
REMARK  145  A    between atoms: _382  and  _385
REMARK  146  A    between atoms: _385  and  _386
REMARK  147  A    between atoms: _386  and  _387
REMARK  148  A    between atoms: _392  and  _394
REMARK  149  A    between atoms: _394  and  _395
REMARK  150  A    between atoms: _394  and  _397
REMARK  151  A    between atoms: _397  and  _398
REMARK  152  A    between atoms: _408  and  _410
REMARK  153  A    between atoms: _410  and  _411
REMARK  154  A    between atoms: _413  and  _415
REMARK  155  A    between atoms: _415  and  _416
REMARK  156  A    between atoms: _415  and  _418
REMARK  157  A    between atoms: _418  and  _419
REMARK                            x       y       z     vdW  Elec       q    Type
REMARK                         _______ _______ _______ _____ _____    ______ ____
ROOT
ATOM      1  CA  MET A   1     -22.132  16.428  24.380  0.00  0.00    +0.134 C 
ENDROOT
BRANCH   1   2
ATOM      2  N   MET A   1     -22.870  15.163  24.351  0.00  0.00    -0.239 NA
ATOM      3  H   MET A   1     -23.101  14.688  25.247  0.00  0.00    +0.142 HD
ENDBRANCH   1   2
BRANCH   1   4
ATOM      4  C   MET A   1     -20.935  16.355  23.424  0.00  0.00    +0.224 C 
ATOM      5  O   MET A   1     -20.155  15.383  23.475  0.00  0.00    -0.287 OA
ENDBRANCH   1   4
BRANCH   1   6
ATOM      6  CB  MET A   1     -21.645  16.780  25.803  0.00  0.00    +0.037 C 
BRANCH   6   7
ATOM      7  CG  MET A   1     -20.928  18.131  25.889  0.00  0.00    +0.059 C 
BRANCH   7   8
ATOM      8  SD  MET A   1     -20.411  18.644  27.555  0.00  0.00    -0.139 S 
ATOM      9  CE  MET A   1     -19.096  17.479  27.934  0.00  0.00    +0.069 C 
ENDBRANCH   7   8
ENDBRANCH   6   7
ENDBRANCH   1   6
TORSDOF 5
REMARK  Name = ../refined-set-2016/4jfs/4jfs_pocket.pdb
REMARK  157 active torsions:
REMARK  status: ('A' for Active; 'I' for Inactive)
REMARK    1  A    between atoms: _1  and  _3
REMARK    2  A    between atoms: _3  and  _4
REMARK    3  A    between atoms: _3  and  _6
REMARK    4  A    between atoms: _6  and  _7
REMARK    5  A    between atoms: _13  and  _15
REMARK    6  A    between atoms: _15  and  _16
REMARK    7  A    between atoms: _15  and  _18
REMARK    8  A    between atoms: _18  and  _19
REMARK    9  A    between atoms: _22  and  _24
REMARK   10  A    between atoms: _24  and  _25
REMARK   11  A    between atoms: _24  and  _27
REMARK   12  A    between atoms: _27  and  _28
REMARK   13  A    between atoms: _33  and  _35
REMARK   14  A    between atoms: _35  and  _36
REMARK   15  A    between atoms: _35  and  _38
REMARK   16  A    between atoms: _38  and  _39
REMARK   17  A    between atoms: _44  and  _45
REMARK   18  A    between atoms: _47  and  _49
REMARK   19  A    between atoms: _49  and  _50
REMARK   20  A    between atoms: _53  and  _55
REMARK   21  A    between atoms: _55  and  _56
REMARK   22  A    between atoms: _59  and  _61
REMARK   23  A    between atoms: _61  and  _62
REMARK   24  A    between atoms: _61  and  _64
REMARK   25  A    between atoms: _64  and  _65
REMARK   26  A    between atoms: _65  and  _66
REMARK   27  A    between atoms: _69  and  _71
REMARK   28  A    between atoms: _71  and  _72
REMARK   29  A    between atoms: _71  and  _74
REMARK   30  A    between atoms: _74  and  _75
REMARK   31  A    between atoms: _85  and  _87
REMARK   32  A    between atoms: _87  and  _88
REMARK   33  A    between atoms: _87  and  _90
REMARK   34  A    between atoms: _90  and  _91
REMARK   35  A    between atoms: _101  and  _103
REMARK   36  A    between atoms: _103  and  _104
REMARK   37  A    between atoms: _103  and  _106
REMARK   38  A    between atoms: _106  and  _107
REMARK   39  A    between atoms: _107  and  _108
REMARK   40  A    between atoms: _108  and  _109
REMARK   41  A    between atoms: _109  and  _110
REMARK   42  A    between atoms: _114  and  _116
REMARK   43  A    between atoms: _116  and  _117
REMARK   44  A    between atoms: _116  and  _119
REMARK   45  A    between atoms: _119  and  _120
REMARK   46  A    between atoms: _123  and  _125
REMARK   47  A    between atoms: _125  and  _126
REMARK   48  A    between atoms: _125  and  _128
REMARK   49  A    between atoms: _128  and  _129
REMARK   50  A    between atoms: _134  and  _136
REMARK   51  A    between atoms: _136  and  _137
REMARK   52  A    between atoms: _136  and  _139
REMARK   53  A    between atoms: _139  and  _140
REMARK   54  A    between atoms: _145  and  _147
REMARK   55  A    between atoms: _147  and  _148
REMARK   56  A    between atoms: _147  and  _150
REMARK   57  A    between atoms: _150  and  _151
REMARK   58  A    between atoms: _156  and  _157
REMARK   59  A    between atoms: _159  and  _161
REMARK   60  A    between atoms: _161  and  _162
REMARK   61  A    between atoms: _161  and  _164
REMARK   62  A    between atoms: _164  and  _165
REMARK   63  A    between atoms: _167  and  _169
REMARK   64  A    between atoms: _169  and  _170
REMARK   65  A    between atoms: _169  and  _172
REMARK   66  A    between atoms: _172  and  _173
REMARK   67  A    between atoms: _173  and  _174
REMARK   68  A    between atoms: _176  and  _178
REMARK   69  A    between atoms: _178  and  _179
REMARK   70  A    between atoms: _178  and  _181
REMARK   71  A    between atoms: _181  and  _182
REMARK   72  A    between atoms: _192  and  _194
REMARK   73  A    between atoms: _194  and  _195
REMARK   74  A    between atoms: _194  and  _197
REMARK   75  A    between atoms: _197  and  _198
REMARK   76  A    between atoms: _208  and  _210
REMARK   77  A    between atoms: _210  and  _211
REMARK   78  A    between atoms: _210  and  _213
REMARK   79  A    between atoms: _213  and  _214
REMARK   80  A    between atoms: _220  and  _222
REMARK   81  A    between atoms: _222  and  _223
REMARK   82  A    between atoms: _222  and  _225
REMARK   83  A    between atoms: _225  and  _226
REMARK   84  A    between atoms: _229  and  _231
REMARK   85  A    between atoms: _231  and  _232
REMARK   86  A    between atoms: _234  and  _236
REMARK   87  A    between atoms: _236  and  _237
REMARK   88  A    between atoms: _236  and  _239
REMARK   89  A    between atoms: _239  and  _240
REMARK   90  A    between atoms: _243  and  _245
REMARK   91  A    between atoms: _245  and  _246
REMARK   92  A    between atoms: _245  and  _248
REMARK   93  A    between atoms: _248  and  _249
REMARK   94  A    between atoms: _259  and  _261
REMARK   95  A    between atoms: _261  and  _262
REMARK   96  A    between atoms: _261  and  _264
REMARK   97  A    between atoms: _264  and  _265
REMARK   98  A    between atoms: _270  and  _272
REMARK   99  A    between atoms: _272  and  _273
REMARK  100  A    between atoms: _272  and  _275
REMARK  101  A    between atoms: _275  and  _276
REMARK  102  A    between atoms: _276  and  _277
REMARK  103  A    between atoms: _277  and  _278
REMARK  104  A    between atoms: _287  and  _289
REMARK  105  A    between atoms: _289  and  _290
REMARK  106  A    between atoms: _289  and  _292
REMARK  107  A    between atoms: _292  and  _293
REMARK  108  A    between atoms: _293  and  _294
REMARK  109  A    between atoms: _294  and  _295
REMARK  110  A    between atoms: _304  and  _306
REMARK  111  A    between atoms: _306  and  _307
REMARK  112  A    between atoms: _306  and  _309
REMARK  113  A    between atoms: _309  and  _310
REMARK  114  A    between atoms: _312  and  _314
REMARK  115  A    between atoms: _314  and  _315
REMARK  116  A    between atoms: _317  and  _319
REMARK  117  A    between atoms: _319  and  _320
REMARK  118  A    between atoms: _319  and  _322
REMARK  119  A    between atoms: _322  and  _323
REMARK  120  A    between atoms: _323  and  _324
REMARK  121  A    between atoms: _327  and  _329
REMARK  122  A    between atoms: _329  and  _330
REMARK  123  A    between atoms: _329  and  _332
REMARK  124  A    between atoms: _332  and  _333
REMARK  125  A    between atoms: _333  and  _334
REMARK  126  A    between atoms: _334  and  _335
REMARK  127  A    between atoms: _344  and  _346
REMARK  128  A    between atoms: _346  and  _347
REMARK  129  A    between atoms: _346  and  _349
REMARK  130  A    between atoms: _351  and  _353
REMARK  131  A    between atoms: _353  and  _354
REMARK  132  A    between atoms: _353  and  _356
REMARK  133  A    between atoms: _356  and  _357
REMARK  134  A    between atoms: _357  and  _358
REMARK  135  A    between atoms: _360  and  _362
REMARK  136  A    between atoms: _362  and  _363
REMARK  137  A    between atoms: _362  and  _365
REMARK  138  A    between atoms: _365  and  _366
REMARK  139  A    between atoms: _369  and  _371
REMARK  140  A    between atoms: _371  and  _372
REMARK  141  A    between atoms: _371  and  _374
REMARK  142  A    between atoms: _374  and  _375
REMARK  143  A    between atoms: _380  and  _382
REMARK  144  A    between atoms: _382  and  _383
REMARK  145  A    between atoms: _382  and  _385
REMARK  146  A    between atoms: _385  and  _386
REMARK  147  A    between atoms: _386  and  _387
REMARK  148  A    between atoms: _392  and  _394
REMARK  149  A    between atoms: _394  and  _395
REMARK  150  A    between atoms: _394  and  _397
REMARK  151  A    between atoms: _397  and  _398
REMARK  152  A    between atoms: _408  and  _410
REMARK  153  A    between atoms: _410  and  _411
REMARK  154  A    between atoms: _413  and  _415
REMARK  155  A    between atoms: _415  and  _416
REMARK  156  A    between atoms: _415  and  _418
REMARK  157  A    between atoms: _418  and  _419
REMARK                            x       y       z     vdW  Elec       q    Type
REMARK                         _______ _______ _______ _____ _____    ______ ____
ROOT
ATOM      1  CG  TRP A   1     -16.453  19.981  23.990  0.00  0.00    -0.002 A 
ATOM      2  CD2 TRP A   1     -15.559  19.408  24.958  0.00  0.00    +0.013 A 
ATOM      3  CE2 TRP A   1     -16.239  19.408  26.189  0.00  0.00    +0.056 A 
ATOM      4  CZ2 TRP A   1     -15.659  18.930  27.369  0.00  0.00    +0.017 A 
ATOM      5  CH2 TRP A   1     -14.369  18.416  27.288  0.00  0.00    +0.001 A 
ATOM      6  CZ3 TRP A   1     -13.695  18.344  26.056  0.00  0.00    +0.000 A 
ATOM      7  NE1 TRP A   1     -17.478  19.950  25.967  0.00  0.00    -0.352 N 
ATOM      8  HE1 TRP A   1     -18.220  20.065  26.687  0.00  0.00    +0.166 HD
ATOM      9  CE3 TRP A   1     -14.279  18.851  24.890  0.00  0.00    +0.001 A 
ATOM     10  CD1 TRP A   1     -17.589  20.313  24.667  0.00  0.00    +0.068 A 
ENDROOT
BRANCH   1  11
ATOM     11  CB  TRP A   1     -16.195  20.180  22.527  0.00  0.00    +0.053 C 
BRANCH  11  12
ATOM     12  CA  TRP A   1     -17.491  20.243  21.662  0.00  0.00    +0.137 C 
BRANCH  12  13
ATOM     13  N   TRP A   1     -18.167  18.968  21.720  0.00  0.00    -0.239 NA
ATOM     14  H   TRP A   1     -17.662  18.160  22.137  0.00  0.00    +0.142 HD
ENDBRANCH  12  13
BRANCH  12  15
ATOM     15  C   TRP A   1     -17.094  20.715  20.280  0.00  0.00    +0.224 C 
ATOM     16  O   TRP A   1     -16.682  21.849  20.132  0.00  0.00    -0.287 OA
ENDBRANCH  12  15
ENDBRANCH  11  12
ENDBRANCH   1  11
TORSDOF 4
REMARK  Name = ../refined-set-2016/4jfs/4jfs_pocket.pdb
REMARK  157 active torsions:
REMARK  status: ('A' for Active; 'I' for Inactive)
REMARK    1  A    between atoms: _1  and  _3
REMARK    2  A    between atoms: _3  and  _4
REMARK    3  A    between atoms: _3  and  _6
REMARK    4  A    between atoms: _6  and  _7
REMARK    5  A    between atoms: _13  and  _15
REMARK    6  A    between atoms: _15  and  _16
REMARK    7  A    between atoms: _15  and  _18
REMARK    8  A    between atoms: _18  and  _19
REMARK    9  A    between atoms: _22  and  _24
REMARK   10  A    between atoms: _24  and  _25
REMARK   11  A    between atoms: _24  and  _27
REMARK   12  A    between atoms: _27  and  _28
REMARK   13  A    between atoms: _33  and  _35
REMARK   14  A    between atoms: _35  and  _36
REMARK   15  A    between atoms: _35  and  _38
REMARK   16  A    between atoms: _38  and  _39
REMARK   17  A    between atoms: _44  and  _45
REMARK   18  A    between atoms: _47  and  _49
REMARK   19  A    between atoms: _49  and  _50
REMARK   20  A    between atoms: _53  and  _55
REMARK   21  A    between atoms: _55  and  _56
REMARK   22  A    between atoms: _59  and  _61
REMARK   23  A    between atoms: _61  and  _62
REMARK   24  A    between atoms: _61  and  _64
REMARK   25  A    between atoms: _64  and  _65
REMARK   26  A    between atoms: _65  and  _66
REMARK   27  A    between atoms: _69  and  _71
REMARK   28  A    between atoms: _71  and  _72
REMARK   29  A    between atoms: _71  and  _74
REMARK   30  A    between atoms: _74  and  _75
REMARK   31  A    between atoms: _85  and  _87
REMARK   32  A    between atoms: _87  and  _88
REMARK   33  A    between atoms: _87  and  _90
REMARK   34  A    between atoms: _90  and  _91
REMARK   35  A    between atoms: _101  and  _103
REMARK   36  A    between atoms: _103  and  _104
REMARK   37  A    between atoms: _103  and  _106
REMARK   38  A    between atoms: _106  and  _107
REMARK   39  A    between atoms: _107  and  _108
REMARK   40  A    between atoms: _108  and  _109
REMARK   41  A    between atoms: _109  and  _110
REMARK   42  A    between atoms: _114  and  _116
REMARK   43  A    between atoms: _116  and  _117
REMARK   44  A    between atoms: _116  and  _119
REMARK   45  A    between atoms: _119  and  _120
REMARK   46  A    between atoms: _123  and  _125
REMARK   47  A    between atoms: _125  and  _126
REMARK   48  A    between atoms: _125  and  _128
REMARK   49  A    between atoms: _128  and  _129
REMARK   50  A    between atoms: _134  and  _136
REMARK   51  A    between atoms: _136  and  _137
REMARK   52  A    between atoms: _136  and  _139
REMARK   53  A    between atoms: _139  and  _140
REMARK   54  A    between atoms: _145  and  _147
REMARK   55  A    between atoms: _147  and  _148
REMARK   56  A    between atoms: _147  and  _150
REMARK   57  A    between atoms: _150  and  _151
REMARK   58  A    between atoms: _156  and  _157
REMARK   59  A    between atoms: _159  and  _161
REMARK   60  A    between atoms: _161  and  _162
REMARK   61  A    between atoms: _161  and  _164
REMARK   62  A    between atoms: _164  and  _165
REMARK   63  A    between atoms: _167  and  _169
REMARK   64  A    between atoms: _169  and  _170
REMARK   65  A    between atoms: _169  and  _172
REMARK   66  A    between atoms: _172  and  _173
REMARK   67  A    between atoms: _173  and  _174
REMARK   68  A    between atoms: _176  and  _178
REMARK   69  A    between atoms: _178  and  _179
REMARK   70  A    between atoms: _178  and  _181
REMARK   71  A    between atoms: _181  and  _182
REMARK   72  A    between atoms: _192  and  _194
REMARK   73  A    between atoms: _194  and  _195
REMARK   74  A    between atoms: _194  and  _197
REMARK   75  A    between atoms: _197  and  _198
REMARK   76  A    between atoms: _208  and  _210
REMARK   77  A    between atoms: _210  and  _211
REMARK   78  A    between atoms: _210  and  _213
REMARK   79  A    between atoms: _213  and  _214
REMARK   80  A    between atoms: _220  and  _222
REMARK   81  A    between atoms: _222  and  _223
REMARK   82  A    between atoms: _222  and  _225
REMARK   83  A    between atoms: _225  and  _226
REMARK   84  A    between atoms: _229  and  _231
REMARK   85  A    between atoms: _231  and  _232
REMARK   86  A    between atoms: _234  and  _236
REMARK   87  A    between atoms: _236  and  _237
REMARK   88  A    between atoms: _236  and  _239
REMARK   89  A    between atoms: _239  and  _240
REMARK   90  A    between atoms: _243  and  _245
REMARK   91  A    between atoms: _245  and  _246
REMARK   92  A    between atoms: _245  and  _248
REMARK   93  A    between atoms: _248  and  _249
REMARK   94  A    between atoms: _259  and  _261
REMARK   95  A    between atoms: _261  and  _262
REMARK   96  A    between atoms: _261  and  _264
REMARK   97  A    between atoms: _264  and  _265
REMARK   98  A    between atoms: _270  and  _272
REMARK   99  A    between atoms: _272  and  _273
REMARK  100  A    between atoms: _272  and  _275
REMARK  101  A    between atoms: _275  and  _276
REMARK  102  A    between atoms: _276  and  _277
REMARK  103  A    between atoms: _277  and  _278
REMARK  104  A    between atoms: _287  and  _289
REMARK  105  A    between atoms: _289  and  _290
REMARK  106  A    between atoms: _289  and  _292
REMARK  107  A    between atoms: _292  and  _293
REMARK  108  A    between atoms: _293  and  _294
REMARK  109  A    between atoms: _294  and  _295
REMARK  110  A    between atoms: _304  and  _306
REMARK  111  A    between atoms: _306  and  _307
REMARK  112  A    between atoms: _306  and  _309
REMARK  113  A    between atoms: _309  and  _310
REMARK  114  A    between atoms: _312  and  _314
REMARK  115  A    between atoms: _314  and  _315
REMARK  116  A    between atoms: _317  and  _319
REMARK  117  A    between atoms: _319  and  _320
REMARK  118  A    between atoms: _319  and  _322
REMARK  119  A    between atoms: _322  and  _323
REMARK  120  A    between atoms: _323  and  _324
REMARK  121  A    between atoms: _327  and  _329
REMARK  122  A    between atoms: _329  and  _330
REMARK  123  A    between atoms: _329  and  _332
REMARK  124  A    between atoms: _332  and  _333
REMARK  125  A    between atoms: _333  and  _334
REMARK  126  A    between atoms: _334  and  _335
REMARK  127  A    between atoms: _344  and  _346
REMARK  128  A    between atoms: _346  and  _347
REMARK  129  A    between atoms: _346  and  _349
REMARK  130  A    between atoms: _351  and  _353
REMARK  131  A    between atoms: _353  and  _354
REMARK  132  A    between atoms: _353  and  _356
REMARK  133  A    between atoms: _356  and  _357
REMARK  134  A    between atoms: _357  and  _358
REMARK  135  A    between atoms: _360  and  _362
REMARK  136  A    between atoms: _362  and  _363
REMARK  137  A    between atoms: _362  and  _365
REMARK  138  A    between atoms: _365  and  _366
REMARK  139  A    between atoms: _369  and  _371
REMARK  140  A    between atoms: _371  and  _372
REMARK  141  A    between atoms: _371  and  _374
REMARK  142  A    between atoms: _374  and  _375
REMARK  143  A    between atoms: _380  and  _382
REMARK  144  A    between atoms: _382  and  _383
REMARK  145  A    between atoms: _382  and  _385
REMARK  146  A    between atoms: _385  and  _386
REMARK  147  A    between atoms: _386  and  _387
REMARK  148  A    between atoms: _392  and  _394
REMARK  149  A    between atoms: _394  and  _395
REMARK  150  A    between atoms: _394  and  _397
REMARK  151  A    between atoms: _397  and  _398
REMARK  152  A    between atoms: _408  and  _410
REMARK  153  A    between atoms: _410  and  _411
REMARK  154  A    between atoms: _413  and  _415
REMARK  155  A    between atoms: _415  and  _416
REMARK  156  A    between atoms: _415  and  _418
REMARK  157  A    between atoms: _418  and  _419
REMARK                            x       y       z     vdW  Elec       q    Type
REMARK                         _______ _______ _______ _____ _____    ______ ____
ROOT
ATOM      1  CA  ASP A   3     -21.974   9.992  28.387  0.00  0.00    +0.160 C 
ENDROOT
BRANCH   1   4
ATOM      2  C   PHE A   2     -23.206   7.965  27.848  0.00  0.00    +0.241 C 
ATOM      3  O   PHE A   2     -23.347   7.614  29.018  0.00  0.00    -0.273 OA
ATOM      4  N   ASP A   3     -22.542   9.062  27.478  0.00  0.00    -0.297 N 
ATOM      5  H   ASP A   3     -22.434   9.247  26.460  0.00  0.00    +0.150 HD
BRANCH   2   6
ATOM      6  CA  PHE A   2     -23.816   7.174  26.716  0.00  0.00    +0.153 C 
BRANCH   6   8
ATOM      7  C   TRP A   1     -22.788   4.990  26.593  0.00  0.00    +0.239 C 
ATOM      8  N   PHE A   2     -23.831   5.733  26.928  0.00  0.00    -0.297 N 
ATOM      9  H   PHE A   2     -24.670   5.283  27.347  0.00  0.00    +0.150 HD
ATOM     10  O   TRP A   1     -21.772   5.462  26.131  0.00  0.00    -0.274 OA
BRANCH   7  11
ATOM     11  CA  TRP A   1     -22.945   3.496  26.804  0.00  0.00    +0.149 C 
BRANCH  11  12
ATOM     12  N   TRP A   1     -23.192   2.896  25.519  0.00  0.00    -0.238 NA
ATOM     13  H   TRP A   1     -22.425   2.922  24.817  0.00  0.00    +0.142 HD
ENDBRANCH  11  12
BRANCH  11  14
ATOM     14  CB  TRP A   1     -21.685   2.861  27.435  0.00  0.00    +0.054 C 
BRANCH  14  15
ATOM     15  CG  TRP A   1     -21.529   3.117  28.929  0.00  0.00    -0.002 A 
ATOM     16  CD1 TRP A   1     -21.934   2.288  29.929  0.00  0.00    +0.068 A 
ATOM     17  NE1 TRP A   1     -21.673   2.846  31.129  0.00  0.00    -0.352 N 
ATOM     18  HE1 TRP A   1     -21.906   2.418  32.048  0.00  0.00    +0.166 HD
ATOM     19  CE2 TRP A   1     -21.059   4.053  30.963  0.00  0.00    +0.056 A 
ATOM     20  CZ2 TRP A   1     -20.585   4.986  31.928  0.00  0.00    +0.017 A 
ATOM     21  CH2 TRP A   1     -20.007   6.134  31.454  0.00  0.00    +0.001 A 
ATOM     22  CZ3 TRP A   1     -19.899   6.378  30.060  0.00  0.00    +0.000 A 
ATOM     23  CE3 TRP A   1     -20.391   5.452  29.118  0.00  0.00    +0.001 A 
ATOM     24  CD2 TRP A   1     -20.966   4.269  29.573  0.00  0.00    +0.013 A 
ENDBRANCH  14  15
ENDBRANCH  11  14
ENDBRANCH   7  11
ENDBRANCH   6   8
BRANCH   6  25
ATOM     25  CB  PHE A   2     -25.255   7.645  26.507  0.00  0.00    +0.055 C 
BRANCH  25  26
ATOM     26  CG  PHE A   2     -25.844   7.166  25.217  0.00  0.00    -0.020 A 
ATOM     27  CD2 PHE A   2     -26.482   5.929  25.130  0.00  0.00    -0.004 A 
ATOM     28  CE2 PHE A   2     -27.036   5.506  23.950  0.00  0.00    -0.000 A 
ATOM     29  CZ  PHE A   2     -26.962   6.285  22.823  0.00  0.00    -0.000 A 
ATOM     30  CE1 PHE A   2     -26.327   7.543  22.915  0.00  0.00    -0.000 A 
ATOM     31  CD1 PHE A   2     -25.756   7.954  24.092  0.00  0.00    -0.004 A 
ENDBRANCH  25  26
ENDBRANCH   6  25
ENDBRANCH   2   6
ENDBRANCH   1   4
BRANCH   1  32
ATOM     32  C   ASP A   3     -22.387  11.356  27.872  0.00  0.00    +0.241 C 
ATOM     33  N   GLY A   4     -22.096  12.386  28.635  0.00  0.00    -0.295 N 
ATOM     34  H   GLY A   4     -21.708  12.230  29.587  0.00  0.00    +0.150 HD
ATOM     35  O   ASP A   3     -22.922  11.506  26.773  0.00  0.00    -0.273 OA
BRANCH  33  36
ATOM     36  CA  GLY A   4     -22.313  13.736  28.158  0.00  0.00    +0.176 C 
BRANCH  36  37
ATOM     37  C   GLY A   4     -23.786  14.002  27.928  0.00  0.00    +0.243 C 
ATOM     38  N   THR A   5     -24.614  13.525  28.846  0.00  0.00    -0.295 N 
ATOM     39  H   THR A   5     -24.226  12.995  29.652  0.00  0.00    +0.150 HD
ATOM     40  O   GLY A   4     -24.161  14.680  26.966  0.00  0.00    -0.273 OA
BRANCH  38  41
ATOM     41  CA  THR A   5     -26.057  13.724  28.755  0.00  0.00    +0.176 C 
BRANCH  41  42
ATOM     42  C   THR A   5     -26.599  14.429  30.016  0.00  0.00    +0.243 C 
ATOM     43  N   TRP A   6     -25.722  15.078  30.787  0.00  0.00    -0.298 N 
ATOM     44  H   TRP A   6     -24.729  15.142  30.483  0.00  0.00    +0.150 HD
ATOM     45  O   THR A   5     -27.792  14.402  30.264  0.00  0.00    -0.273 OA
BRANCH  43  46
ATOM     46  CA  TRP A   6     -26.121  15.699  32.043  0.00  0.00    +0.141 C 
BRANCH  46  47
ATOM     47  C   TRP A   6     -26.645  17.139  31.830  0.00  0.00    +0.227 C 
ATOM     48  O   TRP A   6     -27.234  17.675  32.721  0.00  0.00    -0.286 OA
ENDBRANCH  46  47
BRANCH  46  49
ATOM     49  CB  TRP A   6     -24.956  15.687  33.067  0.00  0.00    +0.056 C 
BRANCH  49  50
ATOM     50  CG  TRP A   6     -23.837  16.400  32.595  0.00  0.00    -0.002 A 
ATOM     51  CD1 TRP A   6     -23.719  17.746  32.507  0.00  0.00    +0.068 A 
ATOM     52  NE1 TRP A   6     -22.509  18.077  31.989  0.00  0.00    -0.352 N 
ATOM     53  HE1 TRP A   6     -22.158  19.046  31.847  0.00  0.00    +0.166 HD
ATOM     54  CE2 TRP A   6     -21.825  16.933  31.683  0.00  0.00    +0.056 A 
ATOM     55  CZ2 TRP A   6     -20.548  16.771  31.150  0.00  0.00    +0.017 A 
ATOM     56  CH2 TRP A   6     -20.089  15.490  30.965  0.00  0.00    +0.001 A 
ATOM     57  CZ3 TRP A   6     -20.883  14.369  31.325  0.00  0.00    +0.000 A 
ATOM     58  CE3 TRP A   6     -22.144  14.550  31.885  0.00  0.00    +0.001 A 
ATOM     59  CD2 TRP A   6     -22.630  15.853  32.057  0.00  0.00    +0.013 A 
ENDBRANCH  49  50
ENDBRANCH  46  49
ENDBRANCH  43  46
ENDBRANCH  41  42
BRANCH  41  60
ATOM     60  CB  THR A   5     -26.740  12.366  28.634  0.00  0.00    +0.137 C 
ATOM     61  CG2 THR A   5     -26.398  11.689  27.275  0.00  0.00    +0.034 C 
BRANCH  60  62
ATOM     62  OG1 THR A   5     -26.274  11.518  29.684  0.00  0.00    -0.382 OA
ATOM     63  HG1 THR A   5     -25.293  11.408  29.607  0.00  0.00    +0.210 HD
ENDBRANCH  60  62
ENDBRANCH  41  60
ENDBRANCH  38  41
ENDBRANCH  36  37
ENDBRANCH  33  36
ENDBRANCH   1  32
BRANCH   1  64
ATOM     64  CB  ASP A   3     -20.433   9.820  28.325  0.00  0.00    +0.143 C 
BRANCH  64  65
ATOM     65  CG  ASP A   3     -19.708  10.415  29.512  0.00  0.00    +0.367 C 
ATOM     66  OD2 ASP A   3     -20.372  10.988  30.399  0.00  0.00    -0.246 OA
ATOM     67  OD1 ASP A   3     -18.451  10.307  29.564  0.00  0.00    -0.246 OA
ENDBRANCH  64  65
ENDBRANCH   1  64
TORSDOF 22
REMARK  Name = ../refined-set-2016/4jfs/4jfs_pocket.pdb
REMARK  157 active torsions:
REMARK  status: ('A' for Active; 'I' for Inactive)
REMARK    1  A    between atoms: _1  and  _3
REMARK    2  A    between atoms: _3  and  _4
REMARK    3  A    between atoms: _3  and  _6
REMARK    4  A    between atoms: _6  and  _7
REMARK    5  A    between atoms: _13  and  _15
REMARK    6  A    between atoms: _15  and  _16
REMARK    7  A    between atoms: _15  and  _18
REMARK    8  A    between atoms: _18  and  _19
REMARK    9  A    between atoms: _22  and  _24
REMARK   10  A    between atoms: _24  and  _25
REMARK   11  A    between atoms: _24  and  _27
REMARK   12  A    between atoms: _27  and  _28
REMARK   13  A    between atoms: _33  and  _35
REMARK   14  A    between atoms: _35  and  _36
REMARK   15  A    between atoms: _35  and  _38
REMARK   16  A    between atoms: _38  and  _39
REMARK   17  A    between atoms: _44  and  _45
REMARK   18  A    between atoms: _47  and  _49
REMARK   19  A    between atoms: _49  and  _50
REMARK   20  A    between atoms: _53  and  _55
REMARK   21  A    between atoms: _55  and  _56
REMARK   22  A    between atoms: _59  and  _61
REMARK   23  A    between atoms: _61  and  _62
REMARK   24  A    between atoms: _61  and  _64
REMARK   25  A    between atoms: _64  and  _65
REMARK   26  A    between atoms: _65  and  _66
REMARK   27  A    between atoms: _69  and  _71
REMARK   28  A    between atoms: _71  and  _72
REMARK   29  A    between atoms: _71  and  _74
REMARK   30  A    between atoms: _74  and  _75
REMARK   31  A    between atoms: _85  and  _87
REMARK   32  A    between atoms: _87  and  _88
REMARK   33  A    between atoms: _87  and  _90
REMARK   34  A    between atoms: _90  and  _91
REMARK   35  A    between atoms: _101  and  _103
REMARK   36  A    between atoms: _103  and  _104
REMARK   37  A    between atoms: _103  and  _106
REMARK   38  A    between atoms: _106  and  _107
REMARK   39  A    between atoms: _107  and  _108
REMARK   40  A    between atoms: _108  and  _109
REMARK   41  A    between atoms: _109  and  _110
REMARK   42  A    between atoms: _114  and  _116
REMARK   43  A    between atoms: _116  and  _117
REMARK   44  A    between atoms: _116  and  _119
REMARK   45  A    between atoms: _119  and  _120
REMARK   46  A    between atoms: _123  and  _125
REMARK   47  A    between atoms: _125  and  _126
REMARK   48  A    between atoms: _125  and  _128
REMARK   49  A    between atoms: _128  and  _129
REMARK   50  A    between atoms: _134  and  _136
REMARK   51  A    between atoms: _136  and  _137
REMARK   52  A    between atoms: _136  and  _139
REMARK   53  A    between atoms: _139  and  _140
REMARK   54  A    between atoms: _145  and  _147
REMARK   55  A    between atoms: _147  and  _148
REMARK   56  A    between atoms: _147  and  _150
REMARK   57  A    between atoms: _150  and  _151
REMARK   58  A    between atoms: _156  and  _157
REMARK   59  A    between atoms: _159  and  _161
REMARK   60  A    between atoms: _161  and  _162
REMARK   61  A    between atoms: _161  and  _164
REMARK   62  A    between atoms: _164  and  _165
REMARK   63  A    between atoms: _167  and  _169
REMARK   64  A    between atoms: _169  and  _170
REMARK   65  A    between atoms: _169  and  _172
REMARK   66  A    between atoms: _172  and  _173
REMARK   67  A    between atoms: _173  and  _174
REMARK   68  A    between atoms: _176  and  _178
REMARK   69  A    between atoms: _178  and  _179
REMARK   70  A    between atoms: _178  and  _181
REMARK   71  A    between atoms: _181  and  _182
REMARK   72  A    between atoms: _192  and  _194
REMARK   73  A    between atoms: _194  and  _195
REMARK   74  A    between atoms: _194  and  _197
REMARK   75  A    between atoms: _197  and  _198
REMARK   76  A    between atoms: _208  and  _210
REMARK   77  A    between atoms: _210  and  _211
REMARK   78  A    between atoms: _210  and  _213
REMARK   79  A    between atoms: _213  and  _214
REMARK   80  A    between atoms: _220  and  _222
REMARK   81  A    between atoms: _222  and  _223
REMARK   82  A    between atoms: _222  and  _225
REMARK   83  A    between atoms: _225  and  _226
REMARK   84  A    between atoms: _229  and  _231
REMARK   85  A    between atoms: _231  and  _232
REMARK   86  A    between atoms: _234  and  _236
REMARK   87  A    between atoms: _236  and  _237
REMARK   88  A    between atoms: _236  and  _239
REMARK   89  A    between atoms: _239  and  _240
REMARK   90  A    between atoms: _243  and  _245
REMARK   91  A    between atoms: _245  and  _246
REMARK   92  A    between atoms: _245  and  _248
REMARK   93  A    between atoms: _248  and  _249
REMARK   94  A    between atoms: _259  and  _261
REMARK   95  A    between atoms: _261  and  _262
REMARK   96  A    between atoms: _261  and  _264
REMARK   97  A    between atoms: _264  and  _265
REMARK   98  A    between atoms: _270  and  _272
REMARK   99  A    between atoms: _272  and  _273
REMARK  100  A    between atoms: _272  and  _275
REMARK  101  A    between atoms: _275  and  _276
REMARK  102  A    between atoms: _276  and  _277
REMARK  103  A    between atoms: _277  and  _278
REMARK  104  A    between atoms: _287  and  _289
REMARK  105  A    between atoms: _289  and  _290
REMARK  106  A    between atoms: _289  and  _292
REMARK  107  A    between atoms: _292  and  _293
REMARK  108  A    between atoms: _293  and  _294
REMARK  109  A    between atoms: _294  and  _295
REMARK  110  A    between atoms: _304  and  _306
REMARK  111  A    between atoms: _306  and  _307
REMARK  112  A    between atoms: _306  and  _309
REMARK  113  A    between atoms: _309  and  _310
REMARK  114  A    between atoms: _312  and  _314
REMARK  115  A    between atoms: _314  and  _315
REMARK  116  A    between atoms: _317  and  _319
REMARK  117  A    between atoms: _319  and  _320
REMARK  118  A    between atoms: _319  and  _322
REMARK  119  A    between atoms: _322  and  _323
REMARK  120  A    between atoms: _323  and  _324
REMARK  121  A    between atoms: _327  and  _329
REMARK  122  A    between atoms: _329  and  _330
REMARK  123  A    between atoms: _329  and  _332
REMARK  124  A    between atoms: _332  and  _333
REMARK  125  A    between atoms: _333  and  _334
REMARK  126  A    between atoms: _334  and  _335
REMARK  127  A    between atoms: _344  and  _346
REMARK  128  A    between atoms: _346  and  _347
REMARK  129  A    between atoms: _346  and  _349
REMARK  130  A    between atoms: _351  and  _353
REMARK  131  A    between atoms: _353  and  _354
REMARK  132  A    between atoms: _353  and  _356
REMARK  133  A    between atoms: _356  and  _357
REMARK  134  A    between atoms: _357  and  _358
REMARK  135  A    between atoms: _360  and  _362
REMARK  136  A    between atoms: _362  and  _363
REMARK  137  A    between atoms: _362  and  _365
REMARK  138  A    between atoms: _365  and  _366
REMARK  139  A    between atoms: _369  and  _371
REMARK  140  A    between atoms: _371  and  _372
REMARK  141  A    between atoms: _371  and  _374
REMARK  142  A    between atoms: _374  and  _375
REMARK  143  A    between atoms: _380  and  _382
REMARK  144  A    between atoms: _382  and  _383
REMARK  145  A    between atoms: _382  and  _385
REMARK  146  A    between atoms: _385  and  _386
REMARK  147  A    between atoms: _386  and  _387
REMARK  148  A    between atoms: _392  and  _394
REMARK  149  A    between atoms: _394  and  _395
REMARK  150  A    between atoms: _394  and  _397
REMARK  151  A    between atoms: _397  and  _398
REMARK  152  A    between atoms: _408  and  _410
REMARK  153  A    between atoms: _410  and  _411
REMARK  154  A    between atoms: _413  and  _415
REMARK  155  A    between atoms: _415  and  _416
REMARK  156  A    between atoms: _415  and  _418
REMARK  157  A    between atoms: _418  and  _419
REMARK                            x       y       z     vdW  Elec       q    Type
REMARK                         _______ _______ _______ _____ _____    ______ ____
ROOT
ATOM      1  CB  ASN A   1     -25.602   2.780  30.057  0.00  0.00    +0.110 C 
ENDROOT
BRANCH   1   2
ATOM      2  CG  ASN A   1     -25.298   4.165  29.515  0.00  0.00    +0.221 C 
ATOM      3  ND2 ASN A   1     -24.217   4.774  30.071  0.00  0.00    -0.329 N 
ATOM      4 HD21 ASN A   1     -23.734   4.337  30.882  0.00  0.00    +0.145 HD
ATOM      5 HD22 ASN A   1     -23.873   5.677  29.686  0.00  0.00    +0.145 HD
ATOM      6  OD1 ASN A   1     -25.902   4.647  28.553  0.00  0.00    -0.275 OA
ENDBRANCH   1   2
BRANCH   1   7
ATOM      7  CA  ASN A   1     -27.030   2.315  29.814  0.00  0.00    +0.142 C 
BRANCH   7   8
ATOM      8  N   ASN A   1     -27.244   1.933  28.426  0.00  0.00    -0.239 NA
ATOM      9  H   ASN A   1     -26.593   2.271  27.689  0.00  0.00    +0.142 HD
ENDBRANCH   7   8
BRANCH   7  10
ATOM     10  C   ASN A   1     -28.049   3.371  30.355  0.00  0.00    +0.225 C 
ATOM     11  O   ASN A   1     -28.585   4.166  29.594  0.00  0.00    -0.287 OA
ENDBRANCH   7  10
ENDBRANCH   1   7
TORSDOF 4
REMARK  Name = ../refined-set-2016/4jfs/4jfs_pocket.pdb
REMARK  157 active torsions:
REMARK  status: ('A' for Active; 'I' for Inactive)
REMARK    1  A    between atoms: _1  and  _3
REMARK    2  A    between atoms: _3  and  _4
REMARK    3  A    between atoms: _3  and  _6
REMARK    4  A    between atoms: _6  and  _7
REMARK    5  A    between atoms: _13  and  _15
REMARK    6  A    between atoms: _15  and  _16
REMARK    7  A    between atoms: _15  and  _18
REMARK    8  A    between atoms: _18  and  _19
REMARK    9  A    between atoms: _22  and  _24
REMARK   10  A    between atoms: _24  and  _25
REMARK   11  A    between atoms: _24  and  _27
REMARK   12  A    between atoms: _27  and  _28
REMARK   13  A    between atoms: _33  and  _35
REMARK   14  A    between atoms: _35  and  _36
REMARK   15  A    between atoms: _35  and  _38
REMARK   16  A    between atoms: _38  and  _39
REMARK   17  A    between atoms: _44  and  _45
REMARK   18  A    between atoms: _47  and  _49
REMARK   19  A    between atoms: _49  and  _50
REMARK   20  A    between atoms: _53  and  _55
REMARK   21  A    between atoms: _55  and  _56
REMARK   22  A    between atoms: _59  and  _61
REMARK   23  A    between atoms: _61  and  _62
REMARK   24  A    between atoms: _61  and  _64
REMARK   25  A    between atoms: _64  and  _65
REMARK   26  A    between atoms: _65  and  _66
REMARK   27  A    between atoms: _69  and  _71
REMARK   28  A    between atoms: _71  and  _72
REMARK   29  A    between atoms: _71  and  _74
REMARK   30  A    between atoms: _74  and  _75
REMARK   31  A    between atoms: _85  and  _87
REMARK   32  A    between atoms: _87  and  _88
REMARK   33  A    between atoms: _87  and  _90
REMARK   34  A    between atoms: _90  and  _91
REMARK   35  A    between atoms: _101  and  _103
REMARK   36  A    between atoms: _103  and  _104
REMARK   37  A    between atoms: _103  and  _106
REMARK   38  A    between atoms: _106  and  _107
REMARK   39  A    between atoms: _107  and  _108
REMARK   40  A    between atoms: _108  and  _109
REMARK   41  A    between atoms: _109  and  _110
REMARK   42  A    between atoms: _114  and  _116
REMARK   43  A    between atoms: _116  and  _117
REMARK   44  A    between atoms: _116  and  _119
REMARK   45  A    between atoms: _119  and  _120
REMARK   46  A    between atoms: _123  and  _125
REMARK   47  A    between atoms: _125  and  _126
REMARK   48  A    between atoms: _125  and  _128
REMARK   49  A    between atoms: _128  and  _129
REMARK   50  A    between atoms: _134  and  _136
REMARK   51  A    between atoms: _136  and  _137
REMARK   52  A    between atoms: _136  and  _139
REMARK   53  A    between atoms: _139  and  _140
REMARK   54  A    between atoms: _145  and  _147
REMARK   55  A    between atoms: _147  and  _148
REMARK   56  A    between atoms: _147  and  _150
REMARK   57  A    between atoms: _150  and  _151
REMARK   58  A    between atoms: _156  and  _157
REMARK   59  A    between atoms: _159  and  _161
REMARK   60  A    between atoms: _161  and  _162
REMARK   61  A    between atoms: _161  and  _164
REMARK   62  A    between atoms: _164  and  _165
REMARK   63  A    between atoms: _167  and  _169
REMARK   64  A    between atoms: _169  and  _170
REMARK   65  A    between atoms: _169  and  _172
REMARK   66  A    between atoms: _172  and  _173
REMARK   67  A    between atoms: _173  and  _174
REMARK   68  A    between atoms: _176  and  _178
REMARK   69  A    between atoms: _178  and  _179
REMARK   70  A    between atoms: _178  and  _181
REMARK   71  A    between atoms: _181  and  _182
REMARK   72  A    between atoms: _192  and  _194
REMARK   73  A    between atoms: _194  and  _195
REMARK   74  A    between atoms: _194  and  _197
REMARK   75  A    between atoms: _197  and  _198
REMARK   76  A    between atoms: _208  and  _210
REMARK   77  A    between atoms: _210  and  _211
REMARK   78  A    between atoms: _210  and  _213
REMARK   79  A    between atoms: _213  and  _214
REMARK   80  A    between atoms: _220  and  _222
REMARK   81  A    between atoms: _222  and  _223
REMARK   82  A    between atoms: _222  and  _225
REMARK   83  A    between atoms: _225  and  _226
REMARK   84  A    between atoms: _229  and  _231
REMARK   85  A    between atoms: _231  and  _232
REMARK   86  A    between atoms: _234  and  _236
REMARK   87  A    between atoms: _236  and  _237
REMARK   88  A    between atoms: _236  and  _239
REMARK   89  A    between atoms: _239  and  _240
REMARK   90  A    between atoms: _243  and  _245
REMARK   91  A    between atoms: _245  and  _246
REMARK   92  A    between atoms: _245  and  _248
REMARK   93  A    between atoms: _248  and  _249
REMARK   94  A    between atoms: _259  and  _261
REMARK   95  A    between atoms: _261  and  _262
REMARK   96  A    between atoms: _261  and  _264
REMARK   97  A    between atoms: _264  and  _265
REMARK   98  A    between atoms: _270  and  _272
REMARK   99  A    between atoms: _272  and  _273
REMARK  100  A    between atoms: _272  and  _275
REMARK  101  A    between atoms: _275  and  _276
REMARK  102  A    between atoms: _276  and  _277
REMARK  103  A    between atoms: _277  and  _278
REMARK  104  A    between atoms: _287  and  _289
REMARK  105  A    between atoms: _289  and  _290
REMARK  106  A    between atoms: _289  and  _292
REMARK  107  A    between atoms: _292  and  _293
REMARK  108  A    between atoms: _293  and  _294
REMARK  109  A    between atoms: _294  and  _295
REMARK  110  A    between atoms: _304  and  _306
REMARK  111  A    between atoms: _306  and  _307
REMARK  112  A    between atoms: _306  and  _309
REMARK  113  A    between atoms: _309  and  _310
REMARK  114  A    between atoms: _312  and  _314
REMARK  115  A    between atoms: _314  and  _315
REMARK  116  A    between atoms: _317  and  _319
REMARK  117  A    between atoms: _319  and  _320
REMARK  118  A    between atoms: _319  and  _322
REMARK  119  A    between atoms: _322  and  _323
REMARK  120  A    between atoms: _323  and  _324
REMARK  121  A    between atoms: _327  and  _329
REMARK  122  A    between atoms: _329  and  _330
REMARK  123  A    between atoms: _329  and  _332
REMARK  124  A    between atoms: _332  and  _333
REMARK  125  A    between atoms: _333  and  _334
REMARK  126  A    between atoms: _334  and  _335
REMARK  127  A    between atoms: _344  and  _346
REMARK  128  A    between atoms: _346  and  _347
REMARK  129  A    between atoms: _346  and  _349
REMARK  130  A    between atoms: _351  and  _353
REMARK  131  A    between atoms: _353  and  _354
REMARK  132  A    between atoms: _353  and  _356
REMARK  133  A    between atoms: _356  and  _357
REMARK  134  A    between atoms: _357  and  _358
REMARK  135  A    between atoms: _360  and  _362
REMARK  136  A    between atoms: _362  and  _363
REMARK  137  A    between atoms: _362  and  _365
REMARK  138  A    between atoms: _365  and  _366
REMARK  139  A    between atoms: _369  and  _371
REMARK  140  A    between atoms: _371  and  _372
REMARK  141  A    between atoms: _371  and  _374
REMARK  142  A    between atoms: _374  and  _375
REMARK  143  A    between atoms: _380  and  _382
REMARK  144  A    between atoms: _382  and  _383
REMARK  145  A    between atoms: _382  and  _385
REMARK  146  A    between atoms: _385  and  _386
REMARK  147  A    between atoms: _386  and  _387
REMARK  148  A    between atoms: _392  and  _394
REMARK  149  A    between atoms: _394  and  _395
REMARK  150  A    between atoms: _394  and  _397
REMARK  151  A    between atoms: _397  and  _398
REMARK  152  A    between atoms: _408  and  _410
REMARK  153  A    between atoms: _410  and  _411
REMARK  154  A    between atoms: _413  and  _415
REMARK  155  A    between atoms: _415  and  _416
REMARK  156  A    between atoms: _415  and  _418
REMARK  157  A    between atoms: _418  and  _419
REMARK                            x       y       z     vdW  Elec       q    Type
REMARK                         _______ _______ _______ _____ _____    ______ ____
ROOT
ATOM      1  NE  ARG A   1     -22.703   7.391  33.452  0.00  0.00    -0.265 N 
ATOM      2  CZ  ARG A   1     -21.626   7.629  34.246  0.00  0.00    +0.342 C 
ATOM      3  NH2 ARG A   1     -21.263   6.728  35.171  0.00  0.00    -0.292 N 
ATOM      4 HH21 ARG A   1     -20.439   6.910  35.779  0.00  0.00    +0.255 HD
ATOM      5 HH22 ARG A   1     -21.806   5.848  35.280  0.00  0.00    +0.255 HD
ATOM      6  NH1 ARG A   1     -20.943   8.788  34.175  0.00  0.00    -0.292 N 
ATOM      7 HH11 ARG A   1     -20.122   8.946  34.793  0.00  0.00    +0.255 HD
ATOM      8 HH12 ARG A   1     -21.237   9.524  33.502  0.00  0.00    +0.255 HD
ATOM      9  HE  ARG A   1     -23.234   6.512  33.616  0.00  0.00    +0.259 HD
ENDROOT
BRANCH   1  10
ATOM     10  CD  ARG A   1     -23.181   8.287  32.368  0.00  0.00    +0.174 C 
BRANCH  10  11
ATOM     11  CG  ARG A   1     -24.691   8.513  32.286  0.00  0.00    +0.045 C 
BRANCH  11  12
ATOM     12  CB  ARG A   1     -25.382   7.243  31.914  0.00  0.00    +0.029 C 
BRANCH  12  13
ATOM     13  CA  ARG A   1     -26.877   7.328  32.002  0.00  0.00    +0.133 C 
BRANCH  13  14
ATOM     14  N   ARG A   1     -27.393   5.970  32.040  0.00  0.00    -0.239 NA
ATOM     15  H   ARG A   1     -26.737   5.168  31.950  0.00  0.00    +0.142 HD
ENDBRANCH  13  14
BRANCH  13  16
ATOM     16  C   ARG A   1     -27.448   8.160  30.833  0.00  0.00    +0.224 C 
ATOM     17  O   ARG A   1     -27.536   9.387  30.898  0.00  0.00    -0.287 OA
ENDBRANCH  13  16
ENDBRANCH  12  13
ENDBRANCH  11  12
ENDBRANCH  10  11
ENDBRANCH   1  10
TORSDOF 6
REMARK  Name = ../refined-set-2016/4jfs/4jfs_pocket.pdb
REMARK  157 active torsions:
REMARK  status: ('A' for Active; 'I' for Inactive)
REMARK    1  A    between atoms: _1  and  _3
REMARK    2  A    between atoms: _3  and  _4
REMARK    3  A    between atoms: _3  and  _6
REMARK    4  A    between atoms: _6  and  _7
REMARK    5  A    between atoms: _13  and  _15
REMARK    6  A    between atoms: _15  and  _16
REMARK    7  A    between atoms: _15  and  _18
REMARK    8  A    between atoms: _18  and  _19
REMARK    9  A    between atoms: _22  and  _24
REMARK   10  A    between atoms: _24  and  _25
REMARK   11  A    between atoms: _24  and  _27
REMARK   12  A    between atoms: _27  and  _28
REMARK   13  A    between atoms: _33  and  _35
REMARK   14  A    between atoms: _35  and  _36
REMARK   15  A    between atoms: _35  and  _38
REMARK   16  A    between atoms: _38  and  _39
REMARK   17  A    between atoms: _44  and  _45
REMARK   18  A    between atoms: _47  and  _49
REMARK   19  A    between atoms: _49  and  _50
REMARK   20  A    between atoms: _53  and  _55
REMARK   21  A    between atoms: _55  and  _56
REMARK   22  A    between atoms: _59  and  _61
REMARK   23  A    between atoms: _61  and  _62
REMARK   24  A    between atoms: _61  and  _64
REMARK   25  A    between atoms: _64  and  _65
REMARK   26  A    between atoms: _65  and  _66
REMARK   27  A    between atoms: _69  and  _71
REMARK   28  A    between atoms: _71  and  _72
REMARK   29  A    between atoms: _71  and  _74
REMARK   30  A    between atoms: _74  and  _75
REMARK   31  A    between atoms: _85  and  _87
REMARK   32  A    between atoms: _87  and  _88
REMARK   33  A    between atoms: _87  and  _90
REMARK   34  A    between atoms: _90  and  _91
REMARK   35  A    between atoms: _101  and  _103
REMARK   36  A    between atoms: _103  and  _104
REMARK   37  A    between atoms: _103  and  _106
REMARK   38  A    between atoms: _106  and  _107
REMARK   39  A    between atoms: _107  and  _108
REMARK   40  A    between atoms: _108  and  _109
REMARK   41  A    between atoms: _109  and  _110
REMARK   42  A    between atoms: _114  and  _116
REMARK   43  A    between atoms: _116  and  _117
REMARK   44  A    between atoms: _116  and  _119
REMARK   45  A    between atoms: _119  and  _120
REMARK   46  A    between atoms: _123  and  _125
REMARK   47  A    between atoms: _125  and  _126
REMARK   48  A    between atoms: _125  and  _128
REMARK   49  A    between atoms: _128  and  _129
REMARK   50  A    between atoms: _134  and  _136
REMARK   51  A    between atoms: _136  and  _137
REMARK   52  A    between atoms: _136  and  _139
REMARK   53  A    between atoms: _139  and  _140
REMARK   54  A    between atoms: _145  and  _147
REMARK   55  A    between atoms: _147  and  _148
REMARK   56  A    between atoms: _147  and  _150
REMARK   57  A    between atoms: _150  and  _151
REMARK   58  A    between atoms: _156  and  _157
REMARK   59  A    between atoms: _159  and  _161
REMARK   60  A    between atoms: _161  and  _162
REMARK   61  A    between atoms: _161  and  _164
REMARK   62  A    between atoms: _164  and  _165
REMARK   63  A    between atoms: _167  and  _169
REMARK   64  A    between atoms: _169  and  _170
REMARK   65  A    between atoms: _169  and  _172
REMARK   66  A    between atoms: _172  and  _173
REMARK   67  A    between atoms: _173  and  _174
REMARK   68  A    between atoms: _176  and  _178
REMARK   69  A    between atoms: _178  and  _179
REMARK   70  A    between atoms: _178  and  _181
REMARK   71  A    between atoms: _181  and  _182
REMARK   72  A    between atoms: _192  and  _194
REMARK   73  A    between atoms: _194  and  _195
REMARK   74  A    between atoms: _194  and  _197
REMARK   75  A    between atoms: _197  and  _198
REMARK   76  A    between atoms: _208  and  _210
REMARK   77  A    between atoms: _210  and  _211
REMARK   78  A    between atoms: _210  and  _213
REMARK   79  A    between atoms: _213  and  _214
REMARK   80  A    between atoms: _220  and  _222
REMARK   81  A    between atoms: _222  and  _223
REMARK   82  A    between atoms: _222  and  _225
REMARK   83  A    between atoms: _225  and  _226
REMARK   84  A    between atoms: _229  and  _231
REMARK   85  A    between atoms: _231  and  _232
REMARK   86  A    between atoms: _234  and  _236
REMARK   87  A    between atoms: _236  and  _237
REMARK   88  A    between atoms: _236  and  _239
REMARK   89  A    between atoms: _239  and  _240
REMARK   90  A    between atoms: _243  and  _245
REMARK   91  A    between atoms: _245  and  _246
REMARK   92  A    between atoms: _245  and  _248
REMARK   93  A    between atoms: _248  and  _249
REMARK   94  A    between atoms: _259  and  _261
REMARK   95  A    between atoms: _261  and  _262
REMARK   96  A    between atoms: _261  and  _264
REMARK   97  A    between atoms: _264  and  _265
REMARK   98  A    between atoms: _270  and  _272
REMARK   99  A    between atoms: _272  and  _273
REMARK  100  A    between atoms: _272  and  _275
REMARK  101  A    between atoms: _275  and  _276
REMARK  102  A    between atoms: _276  and  _277
REMARK  103  A    between atoms: _277  and  _278
REMARK  104  A    between atoms: _287  and  _289
REMARK  105  A    between atoms: _289  and  _290
REMARK  106  A    between atoms: _289  and  _292
REMARK  107  A    between atoms: _292  and  _293
REMARK  108  A    between atoms: _293  and  _294
REMARK  109  A    between atoms: _294  and  _295
REMARK  110  A    between atoms: _304  and  _306
REMARK  111  A    between atoms: _306  and  _307
REMARK  112  A    between atoms: _306  and  _309
REMARK  113  A    between atoms: _309  and  _310
REMARK  114  A    between atoms: _312  and  _314
REMARK  115  A    between atoms: _314  and  _315
REMARK  116  A    between atoms: _317  and  _319
REMARK  117  A    between atoms: _319  and  _320
REMARK  118  A    between atoms: _319  and  _322
REMARK  119  A    between atoms: _322  and  _323
REMARK  120  A    between atoms: _323  and  _324
REMARK  121  A    between atoms: _327  and  _329
REMARK  122  A    between atoms: _329  and  _330
REMARK  123  A    between atoms: _329  and  _332
REMARK  124  A    between atoms: _332  and  _333
REMARK  125  A    between atoms: _333  and  _334
REMARK  126  A    between atoms: _334  and  _335
REMARK  127  A    between atoms: _344  and  _346
REMARK  128  A    between atoms: _346  and  _347
REMARK  129  A    between atoms: _346  and  _349
REMARK  130  A    between atoms: _351  and  _353
REMARK  131  A    between atoms: _353  and  _354
REMARK  132  A    between atoms: _353  and  _356
REMARK  133  A    between atoms: _356  and  _357
REMARK  134  A    between atoms: _357  and  _358
REMARK  135  A    between atoms: _360  and  _362
REMARK  136  A    between atoms: _362  and  _363
REMARK  137  A    between atoms: _362  and  _365
REMARK  138  A    between atoms: _365  and  _366
REMARK  139  A    between atoms: _369  and  _371
REMARK  140  A    between atoms: _371  and  _372
REMARK  141  A    between atoms: _371  and  _374
REMARK  142  A    between atoms: _374  and  _375
REMARK  143  A    between atoms: _380  and  _382
REMARK  144  A    between atoms: _382  and  _383
REMARK  145  A    between atoms: _382  and  _385
REMARK  146  A    between atoms: _385  and  _386
REMARK  147  A    between atoms: _386  and  _387
REMARK  148  A    between atoms: _392  and  _394
REMARK  149  A    between atoms: _394  and  _395
REMARK  150  A    between atoms: _394  and  _397
REMARK  151  A    between atoms: _397  and  _398
REMARK  152  A    between atoms: _408  and  _410
REMARK  153  A    between atoms: _410  and  _411
REMARK  154  A    between atoms: _413  and  _415
REMARK  155  A    between atoms: _415  and  _416
REMARK  156  A    between atoms: _415  and  _418
REMARK  157  A    between atoms: _418  and  _419
REMARK                            x       y       z     vdW  Elec       q    Type
REMARK                         _______ _______ _______ _____ _____    ______ ____
ROOT
ATOM      1  NE  ARG A   1     -28.535  12.518  33.062  0.00  0.00    -0.265 N 
ATOM      2  CZ  ARG A   1     -27.343  12.275  33.578  0.00  0.00    +0.342 C 
ATOM      3  NH2 ARG A   1     -26.878  12.967  34.594  0.00  0.00    -0.292 N 
ATOM      4 HH21 ARG A   1     -27.452  13.727  35.012  0.00  0.00    +0.255 HD
ATOM      5 HH22 ARG A   1     -25.936  12.754  34.980  0.00  0.00    +0.255 HD
ATOM      6  NH1 ARG A   1     -26.609  11.311  33.060  0.00  0.00    -0.292 N 
ATOM      7 HH11 ARG A   1     -25.668  11.105  33.453  0.00  0.00    +0.255 HD
ATOM      8 HH12 ARG A   1     -26.970  10.756  32.258  0.00  0.00    +0.255 HD
ATOM      9  HE  ARG A   1     -28.833  11.919  32.265  0.00  0.00    +0.259 HD
ENDROOT
BRANCH   1  10
ATOM     10  CD  ARG A   1     -29.478  13.550  33.504  0.00  0.00    +0.174 C 
BRANCH  10  11
ATOM     11  CG  ARG A   1     -30.791  12.870  33.846  0.00  0.00    +0.045 C 
BRANCH  11  12
ATOM     12  CB  ARG A   1     -30.595  11.749  34.880  0.00  0.00    +0.029 C 
BRANCH  12  13
ATOM     13  CA  ARG A   1     -31.914  11.007  35.119  0.00  0.00    +0.133 C 
BRANCH  13  14
ATOM     14  N   ARG A   1     -32.860  11.915  35.782  0.00  0.00    -0.239 NA
ATOM     15  H   ARG A   1     -32.527  12.473  36.594  0.00  0.00    +0.142 HD
ENDBRANCH  13  14
BRANCH  13  16
ATOM     16  C   ARG A   1     -31.664   9.641  35.814  0.00  0.00    +0.224 C 
ATOM     17  O   ARG A   1     -31.822   9.503  37.013  0.00  0.00    -0.287 OA
ENDBRANCH  13  16
ENDBRANCH  12  13
ENDBRANCH  11  12
ENDBRANCH  10  11
ENDBRANCH   1  10
TORSDOF 6
REMARK  Name = ../refined-set-2016/4jfs/4jfs_pocket.pdb
REMARK  157 active torsions:
REMARK  status: ('A' for Active; 'I' for Inactive)
REMARK    1  A    between atoms: _1  and  _3
REMARK    2  A    between atoms: _3  and  _4
REMARK    3  A    between atoms: _3  and  _6
REMARK    4  A    between atoms: _6  and  _7
REMARK    5  A    between atoms: _13  and  _15
REMARK    6  A    between atoms: _15  and  _16
REMARK    7  A    between atoms: _15  and  _18
REMARK    8  A    between atoms: _18  and  _19
REMARK    9  A    between atoms: _22  and  _24
REMARK   10  A    between atoms: _24  and  _25
REMARK   11  A    between atoms: _24  and  _27
REMARK   12  A    between atoms: _27  and  _28
REMARK   13  A    between atoms: _33  and  _35
REMARK   14  A    between atoms: _35  and  _36
REMARK   15  A    between atoms: _35  and  _38
REMARK   16  A    between atoms: _38  and  _39
REMARK   17  A    between atoms: _44  and  _45
REMARK   18  A    between atoms: _47  and  _49
REMARK   19  A    between atoms: _49  and  _50
REMARK   20  A    between atoms: _53  and  _55
REMARK   21  A    between atoms: _55  and  _56
REMARK   22  A    between atoms: _59  and  _61
REMARK   23  A    between atoms: _61  and  _62
REMARK   24  A    between atoms: _61  and  _64
REMARK   25  A    between atoms: _64  and  _65
REMARK   26  A    between atoms: _65  and  _66
REMARK   27  A    between atoms: _69  and  _71
REMARK   28  A    between atoms: _71  and  _72
REMARK   29  A    between atoms: _71  and  _74
REMARK   30  A    between atoms: _74  and  _75
REMARK   31  A    between atoms: _85  and  _87
REMARK   32  A    between atoms: _87  and  _88
REMARK   33  A    between atoms: _87  and  _90
REMARK   34  A    between atoms: _90  and  _91
REMARK   35  A    between atoms: _101  and  _103
REMARK   36  A    between atoms: _103  and  _104
REMARK   37  A    between atoms: _103  and  _106
REMARK   38  A    between atoms: _106  and  _107
REMARK   39  A    between atoms: _107  and  _108
REMARK   40  A    between atoms: _108  and  _109
REMARK   41  A    between atoms: _109  and  _110
REMARK   42  A    between atoms: _114  and  _116
REMARK   43  A    between atoms: _116  and  _117
REMARK   44  A    between atoms: _116  and  _119
REMARK   45  A    between atoms: _119  and  _120
REMARK   46  A    between atoms: _123  and  _125
REMARK   47  A    between atoms: _125  and  _126
REMARK   48  A    between atoms: _125  and  _128
REMARK   49  A    between atoms: _128  and  _129
REMARK   50  A    between atoms: _134  and  _136
REMARK   51  A    between atoms: _136  and  _137
REMARK   52  A    between atoms: _136  and  _139
REMARK   53  A    between atoms: _139  and  _140
REMARK   54  A    between atoms: _145  and  _147
REMARK   55  A    between atoms: _147  and  _148
REMARK   56  A    between atoms: _147  and  _150
REMARK   57  A    between atoms: _150  and  _151
REMARK   58  A    between atoms: _156  and  _157
REMARK   59  A    between atoms: _159  and  _161
REMARK   60  A    between atoms: _161  and  _162
REMARK   61  A    between atoms: _161  and  _164
REMARK   62  A    between atoms: _164  and  _165
REMARK   63  A    between atoms: _167  and  _169
REMARK   64  A    between atoms: _169  and  _170
REMARK   65  A    between atoms: _169  and  _172
REMARK   66  A    between atoms: _172  and  _173
REMARK   67  A    between atoms: _173  and  _174
REMARK   68  A    between atoms: _176  and  _178
REMARK   69  A    between atoms: _178  and  _179
REMARK   70  A    between atoms: _178  and  _181
REMARK   71  A    between atoms: _181  and  _182
REMARK   72  A    between atoms: _192  and  _194
REMARK   73  A    between atoms: _194  and  _195
REMARK   74  A    between atoms: _194  and  _197
REMARK   75  A    between atoms: _197  and  _198
REMARK   76  A    between atoms: _208  and  _210
REMARK   77  A    between atoms: _210  and  _211
REMARK   78  A    between atoms: _210  and  _213
REMARK   79  A    between atoms: _213  and  _214
REMARK   80  A    between atoms: _220  and  _222
REMARK   81  A    between atoms: _222  and  _223
REMARK   82  A    between atoms: _222  and  _225
REMARK   83  A    between atoms: _225  and  _226
REMARK   84  A    between atoms: _229  and  _231
REMARK   85  A    between atoms: _231  and  _232
REMARK   86  A    between atoms: _234  and  _236
REMARK   87  A    between atoms: _236  and  _237
REMARK   88  A    between atoms: _236  and  _239
REMARK   89  A    between atoms: _239  and  _240
REMARK   90  A    between atoms: _243  and  _245
REMARK   91  A    between atoms: _245  and  _246
REMARK   92  A    between atoms: _245  and  _248
REMARK   93  A    between atoms: _248  and  _249
REMARK   94  A    between atoms: _259  and  _261
REMARK   95  A    between atoms: _261  and  _262
REMARK   96  A    between atoms: _261  and  _264
REMARK   97  A    between atoms: _264  and  _265
REMARK   98  A    between atoms: _270  and  _272
REMARK   99  A    between atoms: _272  and  _273
REMARK  100  A    between atoms: _272  and  _275
REMARK  101  A    between atoms: _275  and  _276
REMARK  102  A    between atoms: _276  and  _277
REMARK  103  A    between atoms: _277  and  _278
REMARK  104  A    between atoms: _287  and  _289
REMARK  105  A    between atoms: _289  and  _290
REMARK  106  A    between atoms: _289  and  _292
REMARK  107  A    between atoms: _292  and  _293
REMARK  108  A    between atoms: _293  and  _294
REMARK  109  A    between atoms: _294  and  _295
REMARK  110  A    between atoms: _304  and  _306
REMARK  111  A    between atoms: _306  and  _307
REMARK  112  A    between atoms: _306  and  _309
REMARK  113  A    between atoms: _309  and  _310
REMARK  114  A    between atoms: _312  and  _314
REMARK  115  A    between atoms: _314  and  _315
REMARK  116  A    between atoms: _317  and  _319
REMARK  117  A    between atoms: _319  and  _320
REMARK  118  A    between atoms: _319  and  _322
REMARK  119  A    between atoms: _322  and  _323
REMARK  120  A    between atoms: _323  and  _324
REMARK  121  A    between atoms: _327  and  _329
REMARK  122  A    between atoms: _329  and  _330
REMARK  123  A    between atoms: _329  and  _332
REMARK  124  A    between atoms: _332  and  _333
REMARK  125  A    between atoms: _333  and  _334
REMARK  126  A    between atoms: _334  and  _335
REMARK  127  A    between atoms: _344  and  _346
REMARK  128  A    between atoms: _346  and  _347
REMARK  129  A    between atoms: _346  and  _349
REMARK  130  A    between atoms: _351  and  _353
REMARK  131  A    between atoms: _353  and  _354
REMARK  132  A    between atoms: _353  and  _356
REMARK  133  A    between atoms: _356  and  _357
REMARK  134  A    between atoms: _357  and  _358
REMARK  135  A    between atoms: _360  and  _362
REMARK  136  A    between atoms: _362  and  _363
REMARK  137  A    between atoms: _362  and  _365
REMARK  138  A    between atoms: _365  and  _366
REMARK  139  A    between atoms: _369  and  _371
REMARK  140  A    between atoms: _371  and  _372
REMARK  141  A    between atoms: _371  and  _374
REMARK  142  A    between atoms: _374  and  _375
REMARK  143  A    between atoms: _380  and  _382
REMARK  144  A    between atoms: _382  and  _383
REMARK  145  A    between atoms: _382  and  _385
REMARK  146  A    between atoms: _385  and  _386
REMARK  147  A    between atoms: _386  and  _387
REMARK  148  A    between atoms: _392  and  _394
REMARK  149  A    between atoms: _394  and  _395
REMARK  150  A    between atoms: _394  and  _397
REMARK  151  A    between atoms: _397  and  _398
REMARK  152  A    between atoms: _408  and  _410
REMARK  153  A    between atoms: _410  and  _411
REMARK  154  A    between atoms: _413  and  _415
REMARK  155  A    between atoms: _415  and  _416
REMARK  156  A    between atoms: _415  and  _418
REMARK  157  A    between atoms: _418  and  _419
REMARK                            x       y       z     vdW  Elec       q    Type
REMARK                         _______ _______ _______ _____ _____    ______ ____
ROOT
ATOM      1  C   SER A   1     -23.777   4.018  35.912  0.00  0.00    +0.241 C 
ATOM      2  N   GLY A   2     -24.099   4.301  37.148  0.00  0.00    -0.296 N 
ATOM      3  H   GLY A   2     -24.802   3.710  37.636  0.00  0.00    +0.150 HD
ATOM      4  O   SER A   1     -23.043   4.734  35.254  0.00  0.00    -0.274 OA
ENDROOT
BRANCH   1   5
ATOM      5  CA  SER A   1     -24.389   2.792  35.255  0.00  0.00    +0.174 C 
BRANCH   5   6
ATOM      6  N   SER A   1     -25.717   2.492  35.675  0.00  0.00    -0.236 NA
ATOM      7  H   SER A   1     -26.402   3.268  35.778  0.00  0.00    +0.142 HD
ENDBRANCH   5   6
BRANCH   5   8
ATOM      8  CB  SER A   1     -24.436   3.069  33.740  0.00  0.00    +0.163 C 
BRANCH   8   9
ATOM      9  OG  SER A   1     -25.438   4.053  33.442  0.00  0.00    -0.380 OA
ATOM     10  H   SER A   1     -26.323   3.721  33.737  0.00  0.00    +0.211 HD
ENDBRANCH   8   9
ENDBRANCH   5   8
ENDBRANCH   1   5
BRANCH   2  11
ATOM     11  CA  GLY A   2     -23.492   5.434  37.867  0.00  0.00    +0.163 C 
BRANCH  11  12
ATOM     12  C   GLY A   2     -22.200   5.158  38.649  0.00  0.00    +0.229 C 
ATOM     13  O   GLY A   2     -21.482   6.083  38.992  0.00  0.00    -0.286 OA
ENDBRANCH  11  12
ENDBRANCH   2  11
TORSDOF 6
REMARK  Name = ../refined-set-2016/4jfs/4jfs_pocket.pdb
REMARK  157 active torsions:
REMARK  status: ('A' for Active; 'I' for Inactive)
REMARK    1  A    between atoms: _1  and  _3
REMARK    2  A    between atoms: _3  and  _4
REMARK    3  A    between atoms: _3  and  _6
REMARK    4  A    between atoms: _6  and  _7
REMARK    5  A    between atoms: _13  and  _15
REMARK    6  A    between atoms: _15  and  _16
REMARK    7  A    between atoms: _15  and  _18
REMARK    8  A    between atoms: _18  and  _19
REMARK    9  A    between atoms: _22  and  _24
REMARK   10  A    between atoms: _24  and  _25
REMARK   11  A    between atoms: _24  and  _27
REMARK   12  A    between atoms: _27  and  _28
REMARK   13  A    between atoms: _33  and  _35
REMARK   14  A    between atoms: _35  and  _36
REMARK   15  A    between atoms: _35  and  _38
REMARK   16  A    between atoms: _38  and  _39
REMARK   17  A    between atoms: _44  and  _45
REMARK   18  A    between atoms: _47  and  _49
REMARK   19  A    between atoms: _49  and  _50
REMARK   20  A    between atoms: _53  and  _55
REMARK   21  A    between atoms: _55  and  _56
REMARK   22  A    between atoms: _59  and  _61
REMARK   23  A    between atoms: _61  and  _62
REMARK   24  A    between atoms: _61  and  _64
REMARK   25  A    between atoms: _64  and  _65
REMARK   26  A    between atoms: _65  and  _66
REMARK   27  A    between atoms: _69  and  _71
REMARK   28  A    between atoms: _71  and  _72
REMARK   29  A    between atoms: _71  and  _74
REMARK   30  A    between atoms: _74  and  _75
REMARK   31  A    between atoms: _85  and  _87
REMARK   32  A    between atoms: _87  and  _88
REMARK   33  A    between atoms: _87  and  _90
REMARK   34  A    between atoms: _90  and  _91
REMARK   35  A    between atoms: _101  and  _103
REMARK   36  A    between atoms: _103  and  _104
REMARK   37  A    between atoms: _103  and  _106
REMARK   38  A    between atoms: _106  and  _107
REMARK   39  A    between atoms: _107  and  _108
REMARK   40  A    between atoms: _108  and  _109
REMARK   41  A    between atoms: _109  and  _110
REMARK   42  A    between atoms: _114  and  _116
REMARK   43  A    between atoms: _116  and  _117
REMARK   44  A    between atoms: _116  and  _119
REMARK   45  A    between atoms: _119  and  _120
REMARK   46  A    between atoms: _123  and  _125
REMARK   47  A    between atoms: _125  and  _126
REMARK   48  A    between atoms: _125  and  _128
REMARK   49  A    between atoms: _128  and  _129
REMARK   50  A    between atoms: _134  and  _136
REMARK   51  A    between atoms: _136  and  _137
REMARK   52  A    between atoms: _136  and  _139
REMARK   53  A    between atoms: _139  and  _140
REMARK   54  A    between atoms: _145  and  _147
REMARK   55  A    between atoms: _147  and  _148
REMARK   56  A    between atoms: _147  and  _150
REMARK   57  A    between atoms: _150  and  _151
REMARK   58  A    between atoms: _156  and  _157
REMARK   59  A    between atoms: _159  and  _161
REMARK   60  A    between atoms: _161  and  _162
REMARK   61  A    between atoms: _161  and  _164
REMARK   62  A    between atoms: _164  and  _165
REMARK   63  A    between atoms: _167  and  _169
REMARK   64  A    between atoms: _169  and  _170
REMARK   65  A    between atoms: _169  and  _172
REMARK   66  A    between atoms: _172  and  _173
REMARK   67  A    between atoms: _173  and  _174
REMARK   68  A    between atoms: _176  and  _178
REMARK   69  A    between atoms: _178  and  _179
REMARK   70  A    between atoms: _178  and  _181
REMARK   71  A    between atoms: _181  and  _182
REMARK   72  A    between atoms: _192  and  _194
REMARK   73  A    between atoms: _194  and  _195
REMARK   74  A    between atoms: _194  and  _197
REMARK   75  A    between atoms: _197  and  _198
REMARK   76  A    between atoms: _208  and  _210
REMARK   77  A    between atoms: _210  and  _211
REMARK   78  A    between atoms: _210  and  _213
REMARK   79  A    between atoms: _213  and  _214
REMARK   80  A    between atoms: _220  and  _222
REMARK   81  A    between atoms: _222  and  _223
REMARK   82  A    between atoms: _222  and  _225
REMARK   83  A    between atoms: _225  and  _226
REMARK   84  A    between atoms: _229  and  _231
REMARK   85  A    between atoms: _231  and  _232
REMARK   86  A    between atoms: _234  and  _236
REMARK   87  A    between atoms: _236  and  _237
REMARK   88  A    between atoms: _236  and  _239
REMARK   89  A    between atoms: _239  and  _240
REMARK   90  A    between atoms: _243  and  _245
REMARK   91  A    between atoms: _245  and  _246
REMARK   92  A    between atoms: _245  and  _248
REMARK   93  A    between atoms: _248  and  _249
REMARK   94  A    between atoms: _259  and  _261
REMARK   95  A    between atoms: _261  and  _262
REMARK   96  A    between atoms: _261  and  _264
REMARK   97  A    between atoms: _264  and  _265
REMARK   98  A    between atoms: _270  and  _272
REMARK   99  A    between atoms: _272  and  _273
REMARK  100  A    between atoms: _272  and  _275
REMARK  101  A    between atoms: _275  and  _276
REMARK  102  A    between atoms: _276  and  _277
REMARK  103  A    between atoms: _277  and  _278
REMARK  104  A    between atoms: _287  and  _289
REMARK  105  A    between atoms: _289  and  _290
REMARK  106  A    between atoms: _289  and  _292
REMARK  107  A    between atoms: _292  and  _293
REMARK  108  A    between atoms: _293  and  _294
REMARK  109  A    between atoms: _294  and  _295
REMARK  110  A    between atoms: _304  and  _306
REMARK  111  A    between atoms: _306  and  _307
REMARK  112  A    between atoms: _306  and  _309
REMARK  113  A    between atoms: _309  and  _310
REMARK  114  A    between atoms: _312  and  _314
REMARK  115  A    between atoms: _314  and  _315
REMARK  116  A    between atoms: _317  and  _319
REMARK  117  A    between atoms: _319  and  _320
REMARK  118  A    between atoms: _319  and  _322
REMARK  119  A    between atoms: _322  and  _323
REMARK  120  A    between atoms: _323  and  _324
REMARK  121  A    between atoms: _327  and  _329
REMARK  122  A    between atoms: _329  and  _330
REMARK  123  A    between atoms: _329  and  _332
REMARK  124  A    between atoms: _332  and  _333
REMARK  125  A    between atoms: _333  and  _334
REMARK  126  A    between atoms: _334  and  _335
REMARK  127  A    between atoms: _344  and  _346
REMARK  128  A    between atoms: _346  and  _347
REMARK  129  A    between atoms: _346  and  _349
REMARK  130  A    between atoms: _351  and  _353
REMARK  131  A    between atoms: _353  and  _354
REMARK  132  A    between atoms: _353  and  _356
REMARK  133  A    between atoms: _356  and  _357
REMARK  134  A    between atoms: _357  and  _358
REMARK  135  A    between atoms: _360  and  _362
REMARK  136  A    between atoms: _362  and  _363
REMARK  137  A    between atoms: _362  and  _365
REMARK  138  A    between atoms: _365  and  _366
REMARK  139  A    between atoms: _369  and  _371
REMARK  140  A    between atoms: _371  and  _372
REMARK  141  A    between atoms: _371  and  _374
REMARK  142  A    between atoms: _374  and  _375
REMARK  143  A    between atoms: _380  and  _382
REMARK  144  A    between atoms: _382  and  _383
REMARK  145  A    between atoms: _382  and  _385
REMARK  146  A    between atoms: _385  and  _386
REMARK  147  A    between atoms: _386  and  _387
REMARK  148  A    between atoms: _392  and  _394
REMARK  149  A    between atoms: _394  and  _395
REMARK  150  A    between atoms: _394  and  _397
REMARK  151  A    between atoms: _397  and  _398
REMARK  152  A    between atoms: _408  and  _410
REMARK  153  A    between atoms: _410  and  _411
REMARK  154  A    between atoms: _413  and  _415
REMARK  155  A    between atoms: _415  and  _416
REMARK  156  A    between atoms: _415  and  _418
REMARK  157  A    between atoms: _418  and  _419
REMARK                            x       y       z     vdW  Elec       q    Type
REMARK                         _______ _______ _______ _____ _____    ______ ____
ROOT
ATOM      1  CA  ARG A   2     -14.602   5.180  40.610  0.00  0.00    +0.137 C 
ENDROOT
BRANCH   1   4
ATOM      2  C   GLU A   1     -16.636   5.639  39.506  0.00  0.00    +0.238 C 
ATOM      3  O   GLU A   1     -16.820   6.574  40.225  0.00  0.00    -0.274 OA
ATOM      4  N   ARG A   2     -15.583   4.878  39.625  0.00  0.00    -0.298 N 
ATOM      5  H   ARG A   2     -15.461   4.054  39.002  0.00  0.00    +0.150 HD
BRANCH   2   6
ATOM      6  CA  GLU A   1     -17.676   5.230  38.557  0.00  0.00    +0.145 C 
BRANCH   6   7
ATOM      7  N   GLU A   1     -18.763   4.875  39.368  0.00  0.00    -0.238 NA
ATOM      8  H   GLU A   1     -18.977   5.421  40.227  0.00  0.00    +0.142 HD
ENDBRANCH   6   7
BRANCH   6   9
ATOM      9  CB  GLU A   1     -18.137   6.366  37.666  0.00  0.00    +0.038 C 
BRANCH   9  10
ATOM     10  CG  GLU A   1     -17.072   6.994  36.824  0.00  0.00    +0.116 C 
BRANCH  10  11
ATOM     11  CD  GLU A   1     -17.622   8.222  36.175  0.00  0.00    +0.365 C 
ATOM     12  OE2 GLU A   1     -16.945   9.260  36.107  0.00  0.00    -0.246 OA
ATOM     13  OE1 GLU A   1     -18.767   8.118  35.746  0.00  0.00    -0.246 OA
ENDBRANCH  10  11
ENDBRANCH   9  10
ENDBRANCH   6   9
ENDBRANCH   2   6
ENDBRANCH   1   4
BRANCH   1  14
ATOM     14  C   ARG A   2     -15.062   4.941  42.094  0.00  0.00    +0.227 C 
ATOM     15  O   ARG A   2     -14.313   5.163  43.018  0.00  0.00    -0.286 OA
ENDBRANCH   1  14
BRANCH   1  16
ATOM     16  CB  ARG A   2     -13.990   6.581  40.283  0.00  0.00    +0.031 C 
BRANCH  16  17
ATOM     17  CG  ARG A   2     -13.465   6.658  38.797  0.00  0.00    +0.045 C 
BRANCH  17  18
ATOM     18  CD  ARG A   2     -12.555   7.833  38.457  0.00  0.00    +0.174 C 
BRANCH  18  19
ATOM     19  NE  ARG A   2     -13.313   9.051  38.792  0.00  0.00    -0.265 N 
ATOM     20  CZ  ARG A   2     -13.228   9.757  39.918  0.00  0.00    +0.342 C 
ATOM     21  NH2 ARG A   2     -12.360   9.441  40.862  0.00  0.00    -0.292 N 
ATOM     22 HH21 ARG A   2     -12.311  10.006  41.734  0.00  0.00    +0.255 HD
ATOM     23 HH22 ARG A   2     -11.726   8.627  40.734  0.00  0.00    +0.255 HD
ATOM     24  NH1 ARG A   2     -14.016  10.828  40.088  0.00  0.00    -0.292 N 
ATOM     25 HH11 ARG A   2     -13.955  11.384  40.965  0.00  0.00    +0.255 HD
ATOM     26 HH12 ARG A   2     -14.688  11.103  39.343  0.00  0.00    +0.255 HD
ATOM     27  HE  ARG A   2     -13.984   9.395  38.075  0.00  0.00    +0.259 HD
ENDBRANCH  18  19
ENDBRANCH  17  18
ENDBRANCH  16  17
ENDBRANCH   1  16
TORSDOF 11
REMARK  Name = ../refined-set-2016/4jfs/4jfs_pocket.pdb
REMARK  157 active torsions:
REMARK  status: ('A' for Active; 'I' for Inactive)
REMARK    1  A    between atoms: _1  and  _3
REMARK    2  A    between atoms: _3  and  _4
REMARK    3  A    between atoms: _3  and  _6
REMARK    4  A    between atoms: _6  and  _7
REMARK    5  A    between atoms: _13  and  _15
REMARK    6  A    between atoms: _15  and  _16
REMARK    7  A    between atoms: _15  and  _18
REMARK    8  A    between atoms: _18  and  _19
REMARK    9  A    between atoms: _22  and  _24
REMARK   10  A    between atoms: _24  and  _25
REMARK   11  A    between atoms: _24  and  _27
REMARK   12  A    between atoms: _27  and  _28
REMARK   13  A    between atoms: _33  and  _35
REMARK   14  A    between atoms: _35  and  _36
REMARK   15  A    between atoms: _35  and  _38
REMARK   16  A    between atoms: _38  and  _39
REMARK   17  A    between atoms: _44  and  _45
REMARK   18  A    between atoms: _47  and  _49
REMARK   19  A    between atoms: _49  and  _50
REMARK   20  A    between atoms: _53  and  _55
REMARK   21  A    between atoms: _55  and  _56
REMARK   22  A    between atoms: _59  and  _61
REMARK   23  A    between atoms: _61  and  _62
REMARK   24  A    between atoms: _61  and  _64
REMARK   25  A    between atoms: _64  and  _65
REMARK   26  A    between atoms: _65  and  _66
REMARK   27  A    between atoms: _69  and  _71
REMARK   28  A    between atoms: _71  and  _72
REMARK   29  A    between atoms: _71  and  _74
REMARK   30  A    between atoms: _74  and  _75
REMARK   31  A    between atoms: _85  and  _87
REMARK   32  A    between atoms: _87  and  _88
REMARK   33  A    between atoms: _87  and  _90
REMARK   34  A    between atoms: _90  and  _91
REMARK   35  A    between atoms: _101  and  _103
REMARK   36  A    between atoms: _103  and  _104
REMARK   37  A    between atoms: _103  and  _106
REMARK   38  A    between atoms: _106  and  _107
REMARK   39  A    between atoms: _107  and  _108
REMARK   40  A    between atoms: _108  and  _109
REMARK   41  A    between atoms: _109  and  _110
REMARK   42  A    between atoms: _114  and  _116
REMARK   43  A    between atoms: _116  and  _117
REMARK   44  A    between atoms: _116  and  _119
REMARK   45  A    between atoms: _119  and  _120
REMARK   46  A    between atoms: _123  and  _125
REMARK   47  A    between atoms: _125  and  _126
REMARK   48  A    between atoms: _125  and  _128
REMARK   49  A    between atoms: _128  and  _129
REMARK   50  A    between atoms: _134  and  _136
REMARK   51  A    between atoms: _136  and  _137
REMARK   52  A    between atoms: _136  and  _139
REMARK   53  A    between atoms: _139  and  _140
REMARK   54  A    between atoms: _145  and  _147
REMARK   55  A    between atoms: _147  and  _148
REMARK   56  A    between atoms: _147  and  _150
REMARK   57  A    between atoms: _150  and  _151
REMARK   58  A    between atoms: _156  and  _157
REMARK   59  A    between atoms: _159  and  _161
REMARK   60  A    between atoms: _161  and  _162
REMARK   61  A    between atoms: _161  and  _164
REMARK   62  A    between atoms: _164  and  _165
REMARK   63  A    between atoms: _167  and  _169
REMARK   64  A    between atoms: _169  and  _170
REMARK   65  A    between atoms: _169  and  _172
REMARK   66  A    between atoms: _172  and  _173
REMARK   67  A    between atoms: _173  and  _174
REMARK   68  A    between atoms: _176  and  _178
REMARK   69  A    between atoms: _178  and  _179
REMARK   70  A    between atoms: _178  and  _181
REMARK   71  A    between atoms: _181  and  _182
REMARK   72  A    between atoms: _192  and  _194
REMARK   73  A    between atoms: _194  and  _195
REMARK   74  A    between atoms: _194  and  _197
REMARK   75  A    between atoms: _197  and  _198
REMARK   76  A    between atoms: _208  and  _210
REMARK   77  A    between atoms: _210  and  _211
REMARK   78  A    between atoms: _210  and  _213
REMARK   79  A    between atoms: _213  and  _214
REMARK   80  A    between atoms: _220  and  _222
REMARK   81  A    between atoms: _222  and  _223
REMARK   82  A    between atoms: _222  and  _225
REMARK   83  A    between atoms: _225  and  _226
REMARK   84  A    between atoms: _229  and  _231
REMARK   85  A    between atoms: _231  and  _232
REMARK   86  A    between atoms: _234  and  _236
REMARK   87  A    between atoms: _236  and  _237
REMARK   88  A    between atoms: _236  and  _239
REMARK   89  A    between atoms: _239  and  _240
REMARK   90  A    between atoms: _243  and  _245
REMARK   91  A    between atoms: _245  and  _246
REMARK   92  A    between atoms: _245  and  _248
REMARK   93  A    between atoms: _248  and  _249
REMARK   94  A    between atoms: _259  and  _261
REMARK   95  A    between atoms: _261  and  _262
REMARK   96  A    between atoms: _261  and  _264
REMARK   97  A    between atoms: _264  and  _265
REMARK   98  A    between atoms: _270  and  _272
REMARK   99  A    between atoms: _272  and  _273
REMARK  100  A    between atoms: _272  and  _275
REMARK  101  A    between atoms: _275  and  _276
REMARK  102  A    between atoms: _276  and  _277
REMARK  103  A    between atoms: _277  and  _278
REMARK  104  A    between atoms: _287  and  _289
REMARK  105  A    between atoms: _289  and  _290
REMARK  106  A    between atoms: _289  and  _292
REMARK  107  A    between atoms: _292  and  _293
REMARK  108  A    between atoms: _293  and  _294
REMARK  109  A    between atoms: _294  and  _295
REMARK  110  A    between atoms: _304  and  _306
REMARK  111  A    between atoms: _306  and  _307
REMARK  112  A    between atoms: _306  and  _309
REMARK  113  A    between atoms: _309  and  _310
REMARK  114  A    between atoms: _312  and  _314
REMARK  115  A    between atoms: _314  and  _315
REMARK  116  A    between atoms: _317  and  _319
REMARK  117  A    between atoms: _319  and  _320
REMARK  118  A    between atoms: _319  and  _322
REMARK  119  A    between atoms: _322  and  _323
REMARK  120  A    between atoms: _323  and  _324
REMARK  121  A    between atoms: _327  and  _329
REMARK  122  A    between atoms: _329  and  _330
REMARK  123  A    between atoms: _329  and  _332
REMARK  124  A    between atoms: _332  and  _333
REMARK  125  A    between atoms: _333  and  _334
REMARK  126  A    between atoms: _334  and  _335
REMARK  127  A    between atoms: _344  and  _346
REMARK  128  A    between atoms: _346  and  _347
REMARK  129  A    between atoms: _346  and  _349
REMARK  130  A    between atoms: _351  and  _353
REMARK  131  A    between atoms: _353  and  _354
REMARK  132  A    between atoms: _353  and  _356
REMARK  133  A    between atoms: _356  and  _357
REMARK  134  A    between atoms: _357  and  _358
REMARK  135  A    between atoms: _360  and  _362
REMARK  136  A    between atoms: _362  and  _363
REMARK  137  A    between atoms: _362  and  _365
REMARK  138  A    between atoms: _365  and  _366
REMARK  139  A    between atoms: _369  and  _371
REMARK  140  A    between atoms: _371  and  _372
REMARK  141  A    between atoms: _371  and  _374
REMARK  142  A    between atoms: _374  and  _375
REMARK  143  A    between atoms: _380  and  _382
REMARK  144  A    between atoms: _382  and  _383
REMARK  145  A    between atoms: _382  and  _385
REMARK  146  A    between atoms: _385  and  _386
REMARK  147  A    between atoms: _386  and  _387
REMARK  148  A    between atoms: _392  and  _394
REMARK  149  A    between atoms: _394  and  _395
REMARK  150  A    between atoms: _394  and  _397
REMARK  151  A    between atoms: _397  and  _398
REMARK  152  A    between atoms: _408  and  _410
REMARK  153  A    between atoms: _410  and  _411
REMARK  154  A    between atoms: _413  and  _415
REMARK  155  A    between atoms: _415  and  _416
REMARK  156  A    between atoms: _415  and  _418
REMARK  157  A    between atoms: _418  and  _419
REMARK                            x       y       z     vdW  Elec       q    Type
REMARK                         _______ _______ _______ _____ _____    ______ ____
ROOT
ATOM      1  CA  MET A   2     -13.015   2.294  37.083  0.00  0.00    +0.149 C 
ENDROOT
BRANCH   1   4
ATOM      2  C   CYS A   1     -15.319   1.999  36.484  0.00  0.00    +0.239 C 
ATOM      3  O   CYS A   1     -15.674   2.646  37.474  0.00  0.00    -0.274 OA
ATOM      4  N   MET A   2     -14.045   1.744  36.219  0.00  0.00    -0.297 N 
ATOM      5  H   MET A   2     -13.786   1.156  35.401  0.00  0.00    +0.150 HD
BRANCH   2   6
ATOM      6  CA  CYS A   1     -16.331   1.362  35.571  0.00  0.00    +0.156 C 
BRANCH   6   7
ATOM      7  N   CYS A   1     -17.566   1.153  36.311  0.00  0.00    -0.237 NA
ATOM      8  H   CYS A   1     -17.996   1.951  36.822  0.00  0.00    +0.142 HD
ENDBRANCH   6   7
BRANCH   6   9
ATOM      9  CB  CYS A   1     -16.555   2.215  34.350  0.00  0.00    +0.095 C 
ATOM     10  SG  CYS A   1     -17.284   3.828  34.642  0.00  0.00    -0.080 S 
ENDBRANCH   6   9
ENDBRANCH   2   6
ENDBRANCH   1   4
BRANCH   1  11
ATOM     11  C   MET A   2     -11.774   2.655  36.336  0.00  0.00    +0.241 C 
ATOM     12  N   THR A   3     -11.027   3.582  36.909  0.00  0.00    -0.296 N 
ATOM     13  H   THR A   3     -11.399   4.067  37.750  0.00  0.00    +0.150 HD
ATOM     14  O   MET A   2     -11.485   2.052  35.276  0.00  0.00    -0.273 OA
BRANCH  12  15
ATOM     15  CA  THR A   3      -9.708   3.957  36.420  0.00  0.00    +0.164 C 
BRANCH  15  16
ATOM     16  C   THR A   3      -8.598   3.334  37.210  0.00  0.00    +0.229 C 
ATOM     17  O   THR A   3      -8.801   2.866  38.302  0.00  0.00    -0.286 OA
ENDBRANCH  15  16
BRANCH  15  18
ATOM     18  CB  THR A   3      -9.552   5.480  36.458  0.00  0.00    +0.136 C 
ATOM     19  CG2 THR A   3     -10.441   6.109  35.473  0.00  0.00    +0.034 C 
BRANCH  18  20
ATOM     20  OG1 THR A   3      -9.907   5.947  37.754  0.00  0.00    -0.382 OA
ATOM     21  HG1 THR A   3      -9.312   5.532  38.428  0.00  0.00    +0.210 HD
ENDBRANCH  18  20
ENDBRANCH  15  18
ENDBRANCH  12  15
ENDBRANCH   1  11
BRANCH   1  22
ATOM     22  CB  MET A   2     -12.610   1.287  38.139  0.00  0.00    +0.041 C 
BRANCH  22  23
ATOM     23  CG  MET A   2     -12.078  -0.053  37.619  0.00  0.00    +0.060 C 
BRANCH  23  24
ATOM     24  SD  MET A   2     -11.503  -1.143  38.956  0.00  0.00    -0.139 S 
ATOM     25  CE  MET A   2     -10.023  -0.252  39.353  0.00  0.00    +0.069 C 
ENDBRANCH  23  24
ENDBRANCH  22  23
ENDBRANCH   1  22
TORSDOF 12
REMARK  Name = ../refined-set-2016/4jfs/4jfs_pocket.pdb
REMARK  157 active torsions:
REMARK  status: ('A' for Active; 'I' for Inactive)
REMARK    1  A    between atoms: _1  and  _3
REMARK    2  A    between atoms: _3  and  _4
REMARK    3  A    between atoms: _3  and  _6
REMARK    4  A    between atoms: _6  and  _7
REMARK    5  A    between atoms: _13  and  _15
REMARK    6  A    between atoms: _15  and  _16
REMARK    7  A    between atoms: _15  and  _18
REMARK    8  A    between atoms: _18  and  _19
REMARK    9  A    between atoms: _22  and  _24
REMARK   10  A    between atoms: _24  and  _25
REMARK   11  A    between atoms: _24  and  _27
REMARK   12  A    between atoms: _27  and  _28
REMARK   13  A    between atoms: _33  and  _35
REMARK   14  A    between atoms: _35  and  _36
REMARK   15  A    between atoms: _35  and  _38
REMARK   16  A    between atoms: _38  and  _39
REMARK   17  A    between atoms: _44  and  _45
REMARK   18  A    between atoms: _47  and  _49
REMARK   19  A    between atoms: _49  and  _50
REMARK   20  A    between atoms: _53  and  _55
REMARK   21  A    between atoms: _55  and  _56
REMARK   22  A    between atoms: _59  and  _61
REMARK   23  A    between atoms: _61  and  _62
REMARK   24  A    between atoms: _61  and  _64
REMARK   25  A    between atoms: _64  and  _65
REMARK   26  A    between atoms: _65  and  _66
REMARK   27  A    between atoms: _69  and  _71
REMARK   28  A    between atoms: _71  and  _72
REMARK   29  A    between atoms: _71  and  _74
REMARK   30  A    between atoms: _74  and  _75
REMARK   31  A    between atoms: _85  and  _87
REMARK   32  A    between atoms: _87  and  _88
REMARK   33  A    between atoms: _87  and  _90
REMARK   34  A    between atoms: _90  and  _91
REMARK   35  A    between atoms: _101  and  _103
REMARK   36  A    between atoms: _103  and  _104
REMARK   37  A    between atoms: _103  and  _106
REMARK   38  A    between atoms: _106  and  _107
REMARK   39  A    between atoms: _107  and  _108
REMARK   40  A    between atoms: _108  and  _109
REMARK   41  A    between atoms: _109  and  _110
REMARK   42  A    between atoms: _114  and  _116
REMARK   43  A    between atoms: _116  and  _117
REMARK   44  A    between atoms: _116  and  _119
REMARK   45  A    between atoms: _119  and  _120
REMARK   46  A    between atoms: _123  and  _125
REMARK   47  A    between atoms: _125  and  _126
REMARK   48  A    between atoms: _125  and  _128
REMARK   49  A    between atoms: _128  and  _129
REMARK   50  A    between atoms: _134  and  _136
REMARK   51  A    between atoms: _136  and  _137
REMARK   52  A    between atoms: _136  and  _139
REMARK   53  A    between atoms: _139  and  _140
REMARK   54  A    between atoms: _145  and  _147
REMARK   55  A    between atoms: _147  and  _148
REMARK   56  A    between atoms: _147  and  _150
REMARK   57  A    between atoms: _150  and  _151
REMARK   58  A    between atoms: _156  and  _157
REMARK   59  A    between atoms: _159  and  _161
REMARK   60  A    between atoms: _161  and  _162
REMARK   61  A    between atoms: _161  and  _164
REMARK   62  A    between atoms: _164  and  _165
REMARK   63  A    between atoms: _167  and  _169
REMARK   64  A    between atoms: _169  and  _170
REMARK   65  A    between atoms: _169  and  _172
REMARK   66  A    between atoms: _172  and  _173
REMARK   67  A    between atoms: _173  and  _174
REMARK   68  A    between atoms: _176  and  _178
REMARK   69  A    between atoms: _178  and  _179
REMARK   70  A    between atoms: _178  and  _181
REMARK   71  A    between atoms: _181  and  _182
REMARK   72  A    between atoms: _192  and  _194
REMARK   73  A    between atoms: _194  and  _195
REMARK   74  A    between atoms: _194  and  _197
REMARK   75  A    between atoms: _197  and  _198
REMARK   76  A    between atoms: _208  and  _210
REMARK   77  A    between atoms: _210  and  _211
REMARK   78  A    between atoms: _210  and  _213
REMARK   79  A    between atoms: _213  and  _214
REMARK   80  A    between atoms: _220  and  _222
REMARK   81  A    between atoms: _222  and  _223
REMARK   82  A    between atoms: _222  and  _225
REMARK   83  A    between atoms: _225  and  _226
REMARK   84  A    between atoms: _229  and  _231
REMARK   85  A    between atoms: _231  and  _232
REMARK   86  A    between atoms: _234  and  _236
REMARK   87  A    between atoms: _236  and  _237
REMARK   88  A    between atoms: _236  and  _239
REMARK   89  A    between atoms: _239  and  _240
REMARK   90  A    between atoms: _243  and  _245
REMARK   91  A    between atoms: _245  and  _246
REMARK   92  A    between atoms: _245  and  _248
REMARK   93  A    between atoms: _248  and  _249
REMARK   94  A    between atoms: _259  and  _261
REMARK   95  A    between atoms: _261  and  _262
REMARK   96  A    between atoms: _261  and  _264
REMARK   97  A    between atoms: _264  and  _265
REMARK   98  A    between atoms: _270  and  _272
REMARK   99  A    between atoms: _272  and  _273
REMARK  100  A    between atoms: _272  and  _275
REMARK  101  A    between atoms: _275  and  _276
REMARK  102  A    between atoms: _276  and  _277
REMARK  103  A    between atoms: _277  and  _278
REMARK  104  A    between atoms: _287  and  _289
REMARK  105  A    between atoms: _289  and  _290
REMARK  106  A    between atoms: _289  and  _292
REMARK  107  A    between atoms: _292  and  _293
REMARK  108  A    between atoms: _293  and  _294
REMARK  109  A    between atoms: _294  and  _295
REMARK  110  A    between atoms: _304  and  _306
REMARK  111  A    between atoms: _306  and  _307
REMARK  112  A    between atoms: _306  and  _309
REMARK  113  A    between atoms: _309  and  _310
REMARK  114  A    between atoms: _312  and  _314
REMARK  115  A    between atoms: _314  and  _315
REMARK  116  A    between atoms: _317  and  _319
REMARK  117  A    between atoms: _319  and  _320
REMARK  118  A    between atoms: _319  and  _322
REMARK  119  A    between atoms: _322  and  _323
REMARK  120  A    between atoms: _323  and  _324
REMARK  121  A    between atoms: _327  and  _329
REMARK  122  A    between atoms: _329  and  _330
REMARK  123  A    between atoms: _329  and  _332
REMARK  124  A    between atoms: _332  and  _333
REMARK  125  A    between atoms: _333  and  _334
REMARK  126  A    between atoms: _334  and  _335
REMARK  127  A    between atoms: _344  and  _346
REMARK  128  A    between atoms: _346  and  _347
REMARK  129  A    between atoms: _346  and  _349
REMARK  130  A    between atoms: _351  and  _353
REMARK  131  A    between atoms: _353  and  _354
REMARK  132  A    between atoms: _353  and  _356
REMARK  133  A    between atoms: _356  and  _357
REMARK  134  A    between atoms: _357  and  _358
REMARK  135  A    between atoms: _360  and  _362
REMARK  136  A    between atoms: _362  and  _363
REMARK  137  A    between atoms: _362  and  _365
REMARK  138  A    between atoms: _365  and  _366
REMARK  139  A    between atoms: _369  and  _371
REMARK  140  A    between atoms: _371  and  _372
REMARK  141  A    between atoms: _371  and  _374
REMARK  142  A    between atoms: _374  and  _375
REMARK  143  A    between atoms: _380  and  _382
REMARK  144  A    between atoms: _382  and  _383
REMARK  145  A    between atoms: _382  and  _385
REMARK  146  A    between atoms: _385  and  _386
REMARK  147  A    between atoms: _386  and  _387
REMARK  148  A    between atoms: _392  and  _394
REMARK  149  A    between atoms: _394  and  _395
REMARK  150  A    between atoms: _394  and  _397
REMARK  151  A    between atoms: _397  and  _398
REMARK  152  A    between atoms: _408  and  _410
REMARK  153  A    between atoms: _410  and  _411
REMARK  154  A    between atoms: _413  and  _415
REMARK  155  A    between atoms: _415  and  _416
REMARK  156  A    between atoms: _415  and  _418
REMARK  157  A    between atoms: _418  and  _419
REMARK                            x       y       z     vdW  Elec       q    Type
REMARK                         _______ _______ _______ _____ _____    ______ ____
ROOT
ATOM      1  C   GLN A   2      -8.029   8.497  33.560  0.00  0.00    +0.241 C 
ATOM      2  O   GLN A   2      -7.854   7.296  33.831  0.00  0.00    -0.273 OA
ATOM      3  N   TRP A   3      -8.786   8.910  32.548  0.00  0.00    -0.297 N 
ATOM      4  H   TRP A   3      -8.973   9.926  32.427  0.00  0.00    +0.150 HD
ENDROOT
BRANCH   1   5
ATOM      5  CA  GLN A   2      -7.405   9.586  34.403  0.00  0.00    +0.149 C 
BRANCH   5   8
ATOM      6  C   ASN A   1      -8.390  10.458  36.518  0.00  0.00    +0.239 C 
ATOM      7  O   ASN A   1      -8.257  11.618  36.243  0.00  0.00    -0.274 OA
ATOM      8  N   GLN A   2      -7.898   9.470  35.766  0.00  0.00    -0.297 N 
ATOM      9  H   GLN A   2      -7.864   8.525  36.198  0.00  0.00    +0.150 HD
BRANCH   6  10
ATOM     10  CA  ASN A   1      -9.029  10.044  37.864  0.00  0.00    +0.154 C 
BRANCH  10  11
ATOM     11  N   ASN A   1      -8.099   9.391  38.764  0.00  0.00    -0.238 NA
ATOM     12  H   ASN A   1      -7.078   9.558  38.657  0.00  0.00    +0.142 HD
ENDBRANCH  10  11
BRANCH  10  13
ATOM     13  CB  ASN A   1      -9.619  11.265  38.566  0.00  0.00    +0.111 C 
BRANCH  13  14
ATOM     14  CG  ASN A   1     -10.866  11.773  37.864  0.00  0.00    +0.221 C 
ATOM     15  ND2 ASN A   1     -11.387  12.872  38.379  0.00  0.00    -0.329 N 
ATOM     16 HD21 ASN A   1     -10.960  13.304  39.223  0.00  0.00    +0.145 HD
ATOM     17 HD22 ASN A   1     -12.224  13.306  37.940  0.00  0.00    +0.145 HD
ATOM     18  OD1 ASN A   1     -11.342  11.217  36.852  0.00  0.00    -0.275 OA
ENDBRANCH  13  14
ENDBRANCH  10  13
ENDBRANCH   6  10
ENDBRANCH   5   8
BRANCH   5  19
ATOM     19  CB  GLN A   2      -5.892   9.402  34.379  0.00  0.00    +0.039 C 
BRANCH  19  20
ATOM     20  CG  GLN A   2      -5.149  10.497  35.096  0.00  0.00    +0.087 C 
BRANCH  20  21
ATOM     21  CD  GLN A   2      -5.365  11.891  34.484  0.00  0.00    +0.219 C 
ATOM     22  NE2 GLN A   2      -5.197  12.925  35.296  0.00  0.00    -0.329 N 
ATOM     23 HE21 GLN A   2      -4.947  12.768  36.293  0.00  0.00    +0.145 HD
ATOM     24 HE22 GLN A   2      -5.315  13.894  34.936  0.00  0.00    +0.145 HD
ATOM     25  OE1 GLN A   2      -5.655  12.029  33.322  0.00  0.00    -0.275 OA
ENDBRANCH  20  21
ENDBRANCH  19  20
ENDBRANCH   5  19
ENDBRANCH   1   5
BRANCH   3  26
ATOM     26  CA  TRP A   3      -9.356   7.956  31.608  0.00  0.00    +0.153 C 
BRANCH  26  27
ATOM     27  C   TRP A   3      -8.562   7.911  30.318  0.00  0.00    +0.241 C 
ATOM     28  O   TRP A   3      -8.121   6.835  29.894  0.00  0.00    -0.273 OA
ATOM     29  N   GLY A   4      -8.400   9.057  29.677  0.00  0.00    -0.296 N 
ATOM     30  H   GLY A   4      -8.921   9.904  29.982  0.00  0.00    +0.150 HD
BRANCH  29  31
ATOM     31  CA  GLY A   4      -7.493   9.129  28.547  0.00  0.00    +0.163 C 
BRANCH  31  32
ATOM     32  C   GLY A   4      -6.033   9.082  29.027  0.00  0.00    +0.229 C 
ATOM     33  O   GLY A   4      -5.728   9.206  30.195  0.00  0.00    -0.286 OA
ENDBRANCH  31  32
ENDBRANCH  29  31
ENDBRANCH  26  27
BRANCH  26  34
ATOM     34  CB  TRP A   3     -10.824   8.268  31.326  0.00  0.00    +0.057 C 
BRANCH  34  35
ATOM     35  CG  TRP A   3     -11.657   8.242  32.533  0.00  0.00    -0.002 A 
ATOM     36  CD1 TRP A   3     -11.845   9.270  33.411  0.00  0.00    +0.068 A 
ATOM     37  NE1 TRP A   3     -12.758   8.933  34.355  0.00  0.00    -0.352 N 
ATOM     38  HE1 TRP A   3     -13.096   9.556  35.116  0.00  0.00    +0.166 HD
ATOM     39  CE2 TRP A   3     -13.165   7.641  34.146  0.00  0.00    +0.056 A 
ATOM     40  CZ2 TRP A   3     -14.056   6.845  34.870  0.00  0.00    +0.017 A 
ATOM     41  CH2 TRP A   3     -14.267   5.537  34.426  0.00  0.00    +0.001 A 
ATOM     42  CZ3 TRP A   3     -13.631   5.046  33.288  0.00  0.00    +0.000 A 
ATOM     43  CE3 TRP A   3     -12.740   5.859  32.555  0.00  0.00    +0.001 A 
ATOM     44  CD2 TRP A   3     -12.504   7.172  32.985  0.00  0.00    +0.013 A 
ENDBRANCH  34  35
ENDBRANCH  26  34
ENDBRANCH   3  26
TORSDOF 15
REMARK  Name = ../refined-set-2016/4jfs/4jfs_pocket.pdb
REMARK  157 active torsions:
REMARK  status: ('A' for Active; 'I' for Inactive)
REMARK    1  A    between atoms: _1  and  _3
REMARK    2  A    between atoms: _3  and  _4
REMARK    3  A    between atoms: _3  and  _6
REMARK    4  A    between atoms: _6  and  _7
REMARK    5  A    between atoms: _13  and  _15
REMARK    6  A    between atoms: _15  and  _16
REMARK    7  A    between atoms: _15  and  _18
REMARK    8  A    between atoms: _18  and  _19
REMARK    9  A    between atoms: _22  and  _24
REMARK   10  A    between atoms: _24  and  _25
REMARK   11  A    between atoms: _24  and  _27
REMARK   12  A    between atoms: _27  and  _28
REMARK   13  A    between atoms: _33  and  _35
REMARK   14  A    between atoms: _35  and  _36
REMARK   15  A    between atoms: _35  and  _38
REMARK   16  A    between atoms: _38  and  _39
REMARK   17  A    between atoms: _44  and  _45
REMARK   18  A    between atoms: _47  and  _49
REMARK   19  A    between atoms: _49  and  _50
REMARK   20  A    between atoms: _53  and  _55
REMARK   21  A    between atoms: _55  and  _56
REMARK   22  A    between atoms: _59  and  _61
REMARK   23  A    between atoms: _61  and  _62
REMARK   24  A    between atoms: _61  and  _64
REMARK   25  A    between atoms: _64  and  _65
REMARK   26  A    between atoms: _65  and  _66
REMARK   27  A    between atoms: _69  and  _71
REMARK   28  A    between atoms: _71  and  _72
REMARK   29  A    between atoms: _71  and  _74
REMARK   30  A    between atoms: _74  and  _75
REMARK   31  A    between atoms: _85  and  _87
REMARK   32  A    between atoms: _87  and  _88
REMARK   33  A    between atoms: _87  and  _90
REMARK   34  A    between atoms: _90  and  _91
REMARK   35  A    between atoms: _101  and  _103
REMARK   36  A    between atoms: _103  and  _104
REMARK   37  A    between atoms: _103  and  _106
REMARK   38  A    between atoms: _106  and  _107
REMARK   39  A    between atoms: _107  and  _108
REMARK   40  A    between atoms: _108  and  _109
REMARK   41  A    between atoms: _109  and  _110
REMARK   42  A    between atoms: _114  and  _116
REMARK   43  A    between atoms: _116  and  _117
REMARK   44  A    between atoms: _116  and  _119
REMARK   45  A    between atoms: _119  and  _120
REMARK   46  A    between atoms: _123  and  _125
REMARK   47  A    between atoms: _125  and  _126
REMARK   48  A    between atoms: _125  and  _128
REMARK   49  A    between atoms: _128  and  _129
REMARK   50  A    between atoms: _134  and  _136
REMARK   51  A    between atoms: _136  and  _137
REMARK   52  A    between atoms: _136  and  _139
REMARK   53  A    between atoms: _139  and  _140
REMARK   54  A    between atoms: _145  and  _147
REMARK   55  A    between atoms: _147  and  _148
REMARK   56  A    between atoms: _147  and  _150
REMARK   57  A    between atoms: _150  and  _151
REMARK   58  A    between atoms: _156  and  _157
REMARK   59  A    between atoms: _159  and  _161
REMARK   60  A    between atoms: _161  and  _162
REMARK   61  A    between atoms: _161  and  _164
REMARK   62  A    between atoms: _164  and  _165
REMARK   63  A    between atoms: _167  and  _169
REMARK   64  A    between atoms: _169  and  _170
REMARK   65  A    between atoms: _169  and  _172
REMARK   66  A    between atoms: _172  and  _173
REMARK   67  A    between atoms: _173  and  _174
REMARK   68  A    between atoms: _176  and  _178
REMARK   69  A    between atoms: _178  and  _179
REMARK   70  A    between atoms: _178  and  _181
REMARK   71  A    between atoms: _181  and  _182
REMARK   72  A    between atoms: _192  and  _194
REMARK   73  A    between atoms: _194  and  _195
REMARK   74  A    between atoms: _194  and  _197
REMARK   75  A    between atoms: _197  and  _198
REMARK   76  A    between atoms: _208  and  _210
REMARK   77  A    between atoms: _210  and  _211
REMARK   78  A    between atoms: _210  and  _213
REMARK   79  A    between atoms: _213  and  _214
REMARK   80  A    between atoms: _220  and  _222
REMARK   81  A    between atoms: _222  and  _223
REMARK   82  A    between atoms: _222  and  _225
REMARK   83  A    between atoms: _225  and  _226
REMARK   84  A    between atoms: _229  and  _231
REMARK   85  A    between atoms: _231  and  _232
REMARK   86  A    between atoms: _234  and  _236
REMARK   87  A    between atoms: _236  and  _237
REMARK   88  A    between atoms: _236  and  _239
REMARK   89  A    between atoms: _239  and  _240
REMARK   90  A    between atoms: _243  and  _245
REMARK   91  A    between atoms: _245  and  _246
REMARK   92  A    between atoms: _245  and  _248
REMARK   93  A    between atoms: _248  and  _249
REMARK   94  A    between atoms: _259  and  _261
REMARK   95  A    between atoms: _261  and  _262
REMARK   96  A    between atoms: _261  and  _264
REMARK   97  A    between atoms: _264  and  _265
REMARK   98  A    between atoms: _270  and  _272
REMARK   99  A    between atoms: _272  and  _273
REMARK  100  A    between atoms: _272  and  _275
REMARK  101  A    between atoms: _275  and  _276
REMARK  102  A    between atoms: _276  and  _277
REMARK  103  A    between atoms: _277  and  _278
REMARK  104  A    between atoms: _287  and  _289
REMARK  105  A    between atoms: _289  and  _290
REMARK  106  A    between atoms: _289  and  _292
REMARK  107  A    between atoms: _292  and  _293
REMARK  108  A    between atoms: _293  and  _294
REMARK  109  A    between atoms: _294  and  _295
REMARK  110  A    between atoms: _304  and  _306
REMARK  111  A    between atoms: _306  and  _307
REMARK  112  A    between atoms: _306  and  _309
REMARK  113  A    between atoms: _309  and  _310
REMARK  114  A    between atoms: _312  and  _314
REMARK  115  A    between atoms: _314  and  _315
REMARK  116  A    between atoms: _317  and  _319
REMARK  117  A    between atoms: _319  and  _320
REMARK  118  A    between atoms: _319  and  _322
REMARK  119  A    between atoms: _322  and  _323
REMARK  120  A    between atoms: _323  and  _324
REMARK  121  A    between atoms: _327  and  _329
REMARK  122  A    between atoms: _329  and  _330
REMARK  123  A    between atoms: _329  and  _332
REMARK  124  A    between atoms: _332  and  _333
REMARK  125  A    between atoms: _333  and  _334
REMARK  126  A    between atoms: _334  and  _335
REMARK  127  A    between atoms: _344  and  _346
REMARK  128  A    between atoms: _346  and  _347
REMARK  129  A    between atoms: _346  and  _349
REMARK  130  A    between atoms: _351  and  _353
REMARK  131  A    between atoms: _353  and  _354
REMARK  132  A    between atoms: _353  and  _356
REMARK  133  A    between atoms: _356  and  _357
REMARK  134  A    between atoms: _357  and  _358
REMARK  135  A    between atoms: _360  and  _362
REMARK  136  A    between atoms: _362  and  _363
REMARK  137  A    between atoms: _362  and  _365
REMARK  138  A    between atoms: _365  and  _366
REMARK  139  A    between atoms: _369  and  _371
REMARK  140  A    between atoms: _371  and  _372
REMARK  141  A    between atoms: _371  and  _374
REMARK  142  A    between atoms: _374  and  _375
REMARK  143  A    between atoms: _380  and  _382
REMARK  144  A    between atoms: _382  and  _383
REMARK  145  A    between atoms: _382  and  _385
REMARK  146  A    between atoms: _385  and  _386
REMARK  147  A    between atoms: _386  and  _387
REMARK  148  A    between atoms: _392  and  _394
REMARK  149  A    between atoms: _394  and  _395
REMARK  150  A    between atoms: _394  and  _397
REMARK  151  A    between atoms: _397  and  _398
REMARK  152  A    between atoms: _408  and  _410
REMARK  153  A    between atoms: _410  and  _411
REMARK  154  A    between atoms: _413  and  _415
REMARK  155  A    between atoms: _415  and  _416
REMARK  156  A    between atoms: _415  and  _418
REMARK  157  A    between atoms: _418  and  _419
REMARK                            x       y       z     vdW  Elec       q    Type
REMARK                         _______ _______ _______ _____ _____    ______ ____
ROOT
ATOM      1  CB  ASN A   1     -10.504   2.841  32.311  0.00  0.00    +0.110 C 
ENDROOT
BRANCH   1   2
ATOM      2  CG  ASN A   1     -10.171   3.771  31.174  0.00  0.00    +0.221 C 
ATOM      3  ND2 ASN A   1      -9.130   4.572  31.334  0.00  0.00    -0.329 N 
ATOM      4 HD21 ASN A   1      -8.592   4.554  32.224  0.00  0.00    +0.145 HD
ATOM      5 HD22 ASN A   1      -8.850   5.220  30.570  0.00  0.00    +0.145 HD
ATOM      6  OD1 ASN A   1     -10.845   3.750  30.141  0.00  0.00    -0.275 OA
ENDBRANCH   1   2
BRANCH   1   7
ATOM      7  CA  ASN A   1     -10.125   1.406  31.976  0.00  0.00    +0.142 C 
BRANCH   7   8
ATOM      8  N   ASN A   1     -10.539   0.493  33.026  0.00  0.00    -0.239 NA
ATOM      9  H   ASN A   1     -10.645   0.857  33.995  0.00  0.00    +0.142 HD
ENDBRANCH   7   8
BRANCH   7  10
ATOM     10  C   ASN A   1      -8.641   1.413  31.609  0.00  0.00    +0.225 C 
ATOM     11  O   ASN A   1      -7.787   1.326  32.473  0.00  0.00    -0.287 OA
ENDBRANCH   7  10
ENDBRANCH   1   7
TORSDOF 4
REMARK  Name = ../refined-set-2016/4jfs/4jfs_pocket.pdb
REMARK  157 active torsions:
REMARK  status: ('A' for Active; 'I' for Inactive)
REMARK    1  A    between atoms: _1  and  _3
REMARK    2  A    between atoms: _3  and  _4
REMARK    3  A    between atoms: _3  and  _6
REMARK    4  A    between atoms: _6  and  _7
REMARK    5  A    between atoms: _13  and  _15
REMARK    6  A    between atoms: _15  and  _16
REMARK    7  A    between atoms: _15  and  _18
REMARK    8  A    between atoms: _18  and  _19
REMARK    9  A    between atoms: _22  and  _24
REMARK   10  A    between atoms: _24  and  _25
REMARK   11  A    between atoms: _24  and  _27
REMARK   12  A    between atoms: _27  and  _28
REMARK   13  A    between atoms: _33  and  _35
REMARK   14  A    between atoms: _35  and  _36
REMARK   15  A    between atoms: _35  and  _38
REMARK   16  A    between atoms: _38  and  _39
REMARK   17  A    between atoms: _44  and  _45
REMARK   18  A    between atoms: _47  and  _49
REMARK   19  A    between atoms: _49  and  _50
REMARK   20  A    between atoms: _53  and  _55
REMARK   21  A    between atoms: _55  and  _56
REMARK   22  A    between atoms: _59  and  _61
REMARK   23  A    between atoms: _61  and  _62
REMARK   24  A    between atoms: _61  and  _64
REMARK   25  A    between atoms: _64  and  _65
REMARK   26  A    between atoms: _65  and  _66
REMARK   27  A    between atoms: _69  and  _71
REMARK   28  A    between atoms: _71  and  _72
REMARK   29  A    between atoms: _71  and  _74
REMARK   30  A    between atoms: _74  and  _75
REMARK   31  A    between atoms: _85  and  _87
REMARK   32  A    between atoms: _87  and  _88
REMARK   33  A    between atoms: _87  and  _90
REMARK   34  A    between atoms: _90  and  _91
REMARK   35  A    between atoms: _101  and  _103
REMARK   36  A    between atoms: _103  and  _104
REMARK   37  A    between atoms: _103  and  _106
REMARK   38  A    between atoms: _106  and  _107
REMARK   39  A    between atoms: _107  and  _108
REMARK   40  A    between atoms: _108  and  _109
REMARK   41  A    between atoms: _109  and  _110
REMARK   42  A    between atoms: _114  and  _116
REMARK   43  A    between atoms: _116  and  _117
REMARK   44  A    between atoms: _116  and  _119
REMARK   45  A    between atoms: _119  and  _120
REMARK   46  A    between atoms: _123  and  _125
REMARK   47  A    between atoms: _125  and  _126
REMARK   48  A    between atoms: _125  and  _128
REMARK   49  A    between atoms: _128  and  _129
REMARK   50  A    between atoms: _134  and  _136
REMARK   51  A    between atoms: _136  and  _137
REMARK   52  A    between atoms: _136  and  _139
REMARK   53  A    between atoms: _139  and  _140
REMARK   54  A    between atoms: _145  and  _147
REMARK   55  A    between atoms: _147  and  _148
REMARK   56  A    between atoms: _147  and  _150
REMARK   57  A    between atoms: _150  and  _151
REMARK   58  A    between atoms: _156  and  _157
REMARK   59  A    between atoms: _159  and  _161
REMARK   60  A    between atoms: _161  and  _162
REMARK   61  A    between atoms: _161  and  _164
REMARK   62  A    between atoms: _164  and  _165
REMARK   63  A    between atoms: _167  and  _169
REMARK   64  A    between atoms: _169  and  _170
REMARK   65  A    between atoms: _169  and  _172
REMARK   66  A    between atoms: _172  and  _173
REMARK   67  A    between atoms: _173  and  _174
REMARK   68  A    between atoms: _176  and  _178
REMARK   69  A    between atoms: _178  and  _179
REMARK   70  A    between atoms: _178  and  _181
REMARK   71  A    between atoms: _181  and  _182
REMARK   72  A    between atoms: _192  and  _194
REMARK   73  A    between atoms: _194  and  _195
REMARK   74  A    between atoms: _194  and  _197
REMARK   75  A    between atoms: _197  and  _198
REMARK   76  A    between atoms: _208  and  _210
REMARK   77  A    between atoms: _210  and  _211
REMARK   78  A    between atoms: _210  and  _213
REMARK   79  A    between atoms: _213  and  _214
REMARK   80  A    between atoms: _220  and  _222
REMARK   81  A    between atoms: _222  and  _223
REMARK   82  A    between atoms: _222  and  _225
REMARK   83  A    between atoms: _225  and  _226
REMARK   84  A    between atoms: _229  and  _231
REMARK   85  A    between atoms: _231  and  _232
REMARK   86  A    between atoms: _234  and  _236
REMARK   87  A    between atoms: _236  and  _237
REMARK   88  A    between atoms: _236  and  _239
REMARK   89  A    between atoms: _239  and  _240
REMARK   90  A    between atoms: _243  and  _245
REMARK   91  A    between atoms: _245  and  _246
REMARK   92  A    between atoms: _245  and  _248
REMARK   93  A    between atoms: _248  and  _249
REMARK   94  A    between atoms: _259  and  _261
REMARK   95  A    between atoms: _261  and  _262
REMARK   96  A    between atoms: _261  and  _264
REMARK   97  A    between atoms: _264  and  _265
REMARK   98  A    between atoms: _270  and  _272
REMARK   99  A    between atoms: _272  and  _273
REMARK  100  A    between atoms: _272  and  _275
REMARK  101  A    between atoms: _275  and  _276
REMARK  102  A    between atoms: _276  and  _277
REMARK  103  A    between atoms: _277  and  _278
REMARK  104  A    between atoms: _287  and  _289
REMARK  105  A    between atoms: _289  and  _290
REMARK  106  A    between atoms: _289  and  _292
REMARK  107  A    between atoms: _292  and  _293
REMARK  108  A    between atoms: _293  and  _294
REMARK  109  A    between atoms: _294  and  _295
REMARK  110  A    between atoms: _304  and  _306
REMARK  111  A    between atoms: _306  and  _307
REMARK  112  A    between atoms: _306  and  _309
REMARK  113  A    between atoms: _309  and  _310
REMARK  114  A    between atoms: _312  and  _314
REMARK  115  A    between atoms: _314  and  _315
REMARK  116  A    between atoms: _317  and  _319
REMARK  117  A    between atoms: _319  and  _320
REMARK  118  A    between atoms: _319  and  _322
REMARK  119  A    between atoms: _322  and  _323
REMARK  120  A    between atoms: _323  and  _324
REMARK  121  A    between atoms: _327  and  _329
REMARK  122  A    between atoms: _329  and  _330
REMARK  123  A    between atoms: _329  and  _332
REMARK  124  A    between atoms: _332  and  _333
REMARK  125  A    between atoms: _333  and  _334
REMARK  126  A    between atoms: _334  and  _335
REMARK  127  A    between atoms: _344  and  _346
REMARK  128  A    between atoms: _346  and  _347
REMARK  129  A    between atoms: _346  and  _349
REMARK  130  A    between atoms: _351  and  _353
REMARK  131  A    between atoms: _353  and  _354
REMARK  132  A    between atoms: _353  and  _356
REMARK  133  A    between atoms: _356  and  _357
REMARK  134  A    between atoms: _357  and  _358
REMARK  135  A    between atoms: _360  and  _362
REMARK  136  A    between atoms: _362  and  _363
REMARK  137  A    between atoms: _362  and  _365
REMARK  138  A    between atoms: _365  and  _366
REMARK  139  A    between atoms: _369  and  _371
REMARK  140  A    between atoms: _371  and  _372
REMARK  141  A    between atoms: _371  and  _374
REMARK  142  A    between atoms: _374  and  _375
REMARK  143  A    between atoms: _380  and  _382
REMARK  144  A    between atoms: _382  and  _383
REMARK  145  A    between atoms: _382  and  _385
REMARK  146  A    between atoms: _385  and  _386
REMARK  147  A    between atoms: _386  and  _387
REMARK  148  A    between atoms: _392  and  _394
REMARK  149  A    between atoms: _394  and  _395
REMARK  150  A    between atoms: _394  and  _397
REMARK  151  A    between atoms: _397  and  _398
REMARK  152  A    between atoms: _408  and  _410
REMARK  153  A    between atoms: _410  and  _411
REMARK  154  A    between atoms: _413  and  _415
REMARK  155  A    between atoms: _415  and  _416
REMARK  156  A    between atoms: _415  and  _418
REMARK  157  A    between atoms: _418  and  _419
REMARK                            x       y       z     vdW  Elec       q    Type
REMARK                         _______ _______ _______ _____ _____    ______ ____
ROOT
ATOM      1  O   HOH     1     -12.951  14.653  25.079  0.00  0.00    +0.000 OA
ENDROOT
TORSDOF 0
REMARK  Name = ../refined-set-2016/4jfs/4jfs_pocket.pdb
REMARK  157 active torsions:
REMARK  status: ('A' for Active; 'I' for Inactive)
REMARK    1  A    between atoms: _1  and  _3
REMARK    2  A    between atoms: _3  and  _4
REMARK    3  A    between atoms: _3  and  _6
REMARK    4  A    between atoms: _6  and  _7
REMARK    5  A    between atoms: _13  and  _15
REMARK    6  A    between atoms: _15  and  _16
REMARK    7  A    between atoms: _15  and  _18
REMARK    8  A    between atoms: _18  and  _19
REMARK    9  A    between atoms: _22  and  _24
REMARK   10  A    between atoms: _24  and  _25
REMARK   11  A    between atoms: _24  and  _27
REMARK   12  A    between atoms: _27  and  _28
REMARK   13  A    between atoms: _33  and  _35
REMARK   14  A    between atoms: _35  and  _36
REMARK   15  A    between atoms: _35  and  _38
REMARK   16  A    between atoms: _38  and  _39
REMARK   17  A    between atoms: _44  and  _45
REMARK   18  A    between atoms: _47  and  _49
REMARK   19  A    between atoms: _49  and  _50
REMARK   20  A    between atoms: _53  and  _55
REMARK   21  A    between atoms: _55  and  _56
REMARK   22  A    between atoms: _59  and  _61
REMARK   23  A    between atoms: _61  and  _62
REMARK   24  A    between atoms: _61  and  _64
REMARK   25  A    between atoms: _64  and  _65
REMARK   26  A    between atoms: _65  and  _66
REMARK   27  A    between atoms: _69  and  _71
REMARK   28  A    between atoms: _71  and  _72
REMARK   29  A    between atoms: _71  and  _74
REMARK   30  A    between atoms: _74  and  _75
REMARK   31  A    between atoms: _85  and  _87
REMARK   32  A    between atoms: _87  and  _88
REMARK   33  A    between atoms: _87  and  _90
REMARK   34  A    between atoms: _90  and  _91
REMARK   35  A    between atoms: _101  and  _103
REMARK   36  A    between atoms: _103  and  _104
REMARK   37  A    between atoms: _103  and  _106
REMARK   38  A    between atoms: _106  and  _107
REMARK   39  A    between atoms: _107  and  _108
REMARK   40  A    between atoms: _108  and  _109
REMARK   41  A    between atoms: _109  and  _110
REMARK   42  A    between atoms: _114  and  _116
REMARK   43  A    between atoms: _116  and  _117
REMARK   44  A    between atoms: _116  and  _119
REMARK   45  A    between atoms: _119  and  _120
REMARK   46  A    between atoms: _123  and  _125
REMARK   47  A    between atoms: _125  and  _126
REMARK   48  A    between atoms: _125  and  _128
REMARK   49  A    between atoms: _128  and  _129
REMARK   50  A    between atoms: _134  and  _136
REMARK   51  A    between atoms: _136  and  _137
REMARK   52  A    between atoms: _136  and  _139
REMARK   53  A    between atoms: _139  and  _140
REMARK   54  A    between atoms: _145  and  _147
REMARK   55  A    between atoms: _147  and  _148
REMARK   56  A    between atoms: _147  and  _150
REMARK   57  A    between atoms: _150  and  _151
REMARK   58  A    between atoms: _156  and  _157
REMARK   59  A    between atoms: _159  and  _161
REMARK   60  A    between atoms: _161  and  _162
REMARK   61  A    between atoms: _161  and  _164
REMARK   62  A    between atoms: _164  and  _165
REMARK   63  A    between atoms: _167  and  _169
REMARK   64  A    between atoms: _169  and  _170
REMARK   65  A    between atoms: _169  and  _172
REMARK   66  A    between atoms: _172  and  _173
REMARK   67  A    between atoms: _173  and  _174
REMARK   68  A    between atoms: _176  and  _178
REMARK   69  A    between atoms: _178  and  _179
REMARK   70  A    between atoms: _178  and  _181
REMARK   71  A    between atoms: _181  and  _182
REMARK   72  A    between atoms: _192  and  _194
REMARK   73  A    between atoms: _194  and  _195
REMARK   74  A    between atoms: _194  and  _197
REMARK   75  A    between atoms: _197  and  _198
REMARK   76  A    between atoms: _208  and  _210
REMARK   77  A    between atoms: _210  and  _211
REMARK   78  A    between atoms: _210  and  _213
REMARK   79  A    between atoms: _213  and  _214
REMARK   80  A    between atoms: _220  and  _222
REMARK   81  A    between atoms: _222  and  _223
REMARK   82  A    between atoms: _222  and  _225
REMARK   83  A    between atoms: _225  and  _226
REMARK   84  A    between atoms: _229  and  _231
REMARK   85  A    between atoms: _231  and  _232
REMARK   86  A    between atoms: _234  and  _236
REMARK   87  A    between atoms: _236  and  _237
REMARK   88  A    between atoms: _236  and  _239
REMARK   89  A    between atoms: _239  and  _240
REMARK   90  A    between atoms: _243  and  _245
REMARK   91  A    between atoms: _245  and  _246
REMARK   92  A    between atoms: _245  and  _248
REMARK   93  A    between atoms: _248  and  _249
REMARK   94  A    between atoms: _259  and  _261
REMARK   95  A    between atoms: _261  and  _262
REMARK   96  A    between atoms: _261  and  _264
REMARK   97  A    between atoms: _264  and  _265
REMARK   98  A    between atoms: _270  and  _272
REMARK   99  A    between atoms: _272  and  _273
REMARK  100  A    between atoms: _272  and  _275
REMARK  101  A    between atoms: _275  and  _276
REMARK  102  A    between atoms: _276  and  _277
REMARK  103  A    between atoms: _277  and  _278
REMARK  104  A    between atoms: _287  and  _289
REMARK  105  A    between atoms: _289  and  _290
REMARK  106  A    between atoms: _289  and  _292
REMARK  107  A    between atoms: _292  and  _293
REMARK  108  A    between atoms: _293  and  _294
REMARK  109  A    between atoms: _294  and  _295
REMARK  110  A    between atoms: _304  and  _306
REMARK  111  A    between atoms: _306  and  _307
REMARK  112  A    between atoms: _306  and  _309
REMARK  113  A    between atoms: _309  and  _310
REMARK  114  A    between atoms: _312  and  _314
REMARK  115  A    between atoms: _314  and  _315
REMARK  116  A    between atoms: _317  and  _319
REMARK  117  A    between atoms: _319  and  _320
REMARK  118  A    between atoms: _319  and  _322
REMARK  119  A    between atoms: _322  and  _323
REMARK  120  A    between atoms: _323  and  _324
REMARK  121  A    between atoms: _327  and  _329
REMARK  122  A    between atoms: _329  and  _330
REMARK  123  A    between atoms: _329  and  _332
REMARK  124  A    between atoms: _332  and  _333
REMARK  125  A    between atoms: _333  and  _334
REMARK  126  A    between atoms: _334  and  _335
REMARK  127  A    between atoms: _344  and  _346
REMARK  128  A    between atoms: _346  and  _347
REMARK  129  A    between atoms: _346  and  _349
REMARK  130  A    between atoms: _351  and  _353
REMARK  131  A    between atoms: _353  and  _354
REMARK  132  A    between atoms: _353  and  _356
REMARK  133  A    between atoms: _356  and  _357
REMARK  134  A    between atoms: _357  and  _358
REMARK  135  A    between atoms: _360  and  _362
REMARK  136  A    between atoms: _362  and  _363
REMARK  137  A    between atoms: _362  and  _365
REMARK  138  A    between atoms: _365  and  _366
REMARK  139  A    between atoms: _369  and  _371
REMARK  140  A    between atoms: _371  and  _372
REMARK  141  A    between atoms: _371  and  _374
REMARK  142  A    between atoms: _374  and  _375
REMARK  143  A    between atoms: _380  and  _382
REMARK  144  A    between atoms: _382  and  _383
REMARK  145  A    between atoms: _382  and  _385
REMARK  146  A    between atoms: _385  and  _386
REMARK  147  A    between atoms: _386  and  _387
REMARK  148  A    between atoms: _392  and  _394
REMARK  149  A    between atoms: _394  and  _395
REMARK  150  A    between atoms: _394  and  _397
REMARK  151  A    between atoms: _397  and  _398
REMARK  152  A    between atoms: _408  and  _410
REMARK  153  A    between atoms: _410  and  _411
REMARK  154  A    between atoms: _413  and  _415
REMARK  155  A    between atoms: _415  and  _416
REMARK  156  A    between atoms: _415  and  _418
REMARK  157  A    between atoms: _418  and  _419
REMARK                            x       y       z     vdW  Elec       q    Type
REMARK                         _______ _______ _______ _____ _____    ______ ____
ROOT
ATOM      1  O   HOH     1     -10.468  15.764  36.459  0.00  0.00    +0.000 OA
ENDROOT
TORSDOF 0
REMARK  Name = ../refined-set-2016/4jfs/4jfs_pocket.pdb
REMARK  157 active torsions:
REMARK  status: ('A' for Active; 'I' for Inactive)
REMARK    1  A    between atoms: _1  and  _3
REMARK    2  A    between atoms: _3  and  _4
REMARK    3  A    between atoms: _3  and  _6
REMARK    4  A    between atoms: _6  and  _7
REMARK    5  A    between atoms: _13  and  _15
REMARK    6  A    between atoms: _15  and  _16
REMARK    7  A    between atoms: _15  and  _18
REMARK    8  A    between atoms: _18  and  _19
REMARK    9  A    between atoms: _22  and  _24
REMARK   10  A    between atoms: _24  and  _25
REMARK   11  A    between atoms: _24  and  _27
REMARK   12  A    between atoms: _27  and  _28
REMARK   13  A    between atoms: _33  and  _35
REMARK   14  A    between atoms: _35  and  _36
REMARK   15  A    between atoms: _35  and  _38
REMARK   16  A    between atoms: _38  and  _39
REMARK   17  A    between atoms: _44  and  _45
REMARK   18  A    between atoms: _47  and  _49
REMARK   19  A    between atoms: _49  and  _50
REMARK   20  A    between atoms: _53  and  _55
REMARK   21  A    between atoms: _55  and  _56
REMARK   22  A    between atoms: _59  and  _61
REMARK   23  A    between atoms: _61  and  _62
REMARK   24  A    between atoms: _61  and  _64
REMARK   25  A    between atoms: _64  and  _65
REMARK   26  A    between atoms: _65  and  _66
REMARK   27  A    between atoms: _69  and  _71
REMARK   28  A    between atoms: _71  and  _72
REMARK   29  A    between atoms: _71  and  _74
REMARK   30  A    between atoms: _74  and  _75
REMARK   31  A    between atoms: _85  and  _87
REMARK   32  A    between atoms: _87  and  _88
REMARK   33  A    between atoms: _87  and  _90
REMARK   34  A    between atoms: _90  and  _91
REMARK   35  A    between atoms: _101  and  _103
REMARK   36  A    between atoms: _103  and  _104
REMARK   37  A    between atoms: _103  and  _106
REMARK   38  A    between atoms: _106  and  _107
REMARK   39  A    between atoms: _107  and  _108
REMARK   40  A    between atoms: _108  and  _109
REMARK   41  A    between atoms: _109  and  _110
REMARK   42  A    between atoms: _114  and  _116
REMARK   43  A    between atoms: _116  and  _117
REMARK   44  A    between atoms: _116  and  _119
REMARK   45  A    between atoms: _119  and  _120
REMARK   46  A    between atoms: _123  and  _125
REMARK   47  A    between atoms: _125  and  _126
REMARK   48  A    between atoms: _125  and  _128
REMARK   49  A    between atoms: _128  and  _129
REMARK   50  A    between atoms: _134  and  _136
REMARK   51  A    between atoms: _136  and  _137
REMARK   52  A    between atoms: _136  and  _139
REMARK   53  A    between atoms: _139  and  _140
REMARK   54  A    between atoms: _145  and  _147
REMARK   55  A    between atoms: _147  and  _148
REMARK   56  A    between atoms: _147  and  _150
REMARK   57  A    between atoms: _150  and  _151
REMARK   58  A    between atoms: _156  and  _157
REMARK   59  A    between atoms: _159  and  _161
REMARK   60  A    between atoms: _161  and  _162
REMARK   61  A    between atoms: _161  and  _164
REMARK   62  A    between atoms: _164  and  _165
REMARK   63  A    between atoms: _167  and  _169
REMARK   64  A    between atoms: _169  and  _170
REMARK   65  A    between atoms: _169  and  _172
REMARK   66  A    between atoms: _172  and  _173
REMARK   67  A    between atoms: _173  and  _174
REMARK   68  A    between atoms: _176  and  _178
REMARK   69  A    between atoms: _178  and  _179
REMARK   70  A    between atoms: _178  and  _181
REMARK   71  A    between atoms: _181  and  _182
REMARK   72  A    between atoms: _192  and  _194
REMARK   73  A    between atoms: _194  and  _195
REMARK   74  A    between atoms: _194  and  _197
REMARK   75  A    between atoms: _197  and  _198
REMARK   76  A    between atoms: _208  and  _210
REMARK   77  A    between atoms: _210  and  _211
REMARK   78  A    between atoms: _210  and  _213
REMARK   79  A    between atoms: _213  and  _214
REMARK   80  A    between atoms: _220  and  _222
REMARK   81  A    between atoms: _222  and  _223
REMARK   82  A    between atoms: _222  and  _225
REMARK   83  A    between atoms: _225  and  _226
REMARK   84  A    between atoms: _229  and  _231
REMARK   85  A    between atoms: _231  and  _232
REMARK   86  A    between atoms: _234  and  _236
REMARK   87  A    between atoms: _236  and  _237
REMARK   88  A    between atoms: _236  and  _239
REMARK   89  A    between atoms: _239  and  _240
REMARK   90  A    between atoms: _243  and  _245
REMARK   91  A    between atoms: _245  and  _246
REMARK   92  A    between atoms: _245  and  _248
REMARK   93  A    between atoms: _248  and  _249
REMARK   94  A    between atoms: _259  and  _261
REMARK   95  A    between atoms: _261  and  _262
REMARK   96  A    between atoms: _261  and  _264
REMARK   97  A    between atoms: _264  and  _265
REMARK   98  A    between atoms: _270  and  _272
REMARK   99  A    between atoms: _272  and  _273
REMARK  100  A    between atoms: _272  and  _275
REMARK  101  A    between atoms: _275  and  _276
REMARK  102  A    between atoms: _276  and  _277
REMARK  103  A    between atoms: _277  and  _278
REMARK  104  A    between atoms: _287  and  _289
REMARK  105  A    between atoms: _289  and  _290
REMARK  106  A    between atoms: _289  and  _292
REMARK  107  A    between atoms: _292  and  _293
REMARK  108  A    between atoms: _293  and  _294
REMARK  109  A    between atoms: _294  and  _295
REMARK  110  A    between atoms: _304  and  _306
REMARK  111  A    between atoms: _306  and  _307
REMARK  112  A    between atoms: _306  and  _309
REMARK  113  A    between atoms: _309  and  _310
REMARK  114  A    between atoms: _312  and  _314
REMARK  115  A    between atoms: _314  and  _315
REMARK  116  A    between atoms: _317  and  _319
REMARK  117  A    between atoms: _319  and  _320
REMARK  118  A    between atoms: _319  and  _322
REMARK  119  A    between atoms: _322  and  _323
REMARK  120  A    between atoms: _323  and  _324
REMARK  121  A    between atoms: _327  and  _329
REMARK  122  A    between atoms: _329  and  _330
REMARK  123  A    between atoms: _329  and  _332
REMARK  124  A    between atoms: _332  and  _333
REMARK  125  A    between atoms: _333  and  _334
REMARK  126  A    between atoms: _334  and  _335
REMARK  127  A    between atoms: _344  and  _346
REMARK  128  A    between atoms: _346  and  _347
REMARK  129  A    between atoms: _346  and  _349
REMARK  130  A    between atoms: _351  and  _353
REMARK  131  A    between atoms: _353  and  _354
REMARK  132  A    between atoms: _353  and  _356
REMARK  133  A    between atoms: _356  and  _357
REMARK  134  A    between atoms: _357  and  _358
REMARK  135  A    between atoms: _360  and  _362
REMARK  136  A    between atoms: _362  and  _363
REMARK  137  A    between atoms: _362  and  _365
REMARK  138  A    between atoms: _365  and  _366
REMARK  139  A    between atoms: _369  and  _371
REMARK  140  A    between atoms: _371  and  _372
REMARK  141  A    between atoms: _371  and  _374
REMARK  142  A    between atoms: _374  and  _375
REMARK  143  A    between atoms: _380  and  _382
REMARK  144  A    between atoms: _382  and  _383
REMARK  145  A    between atoms: _382  and  _385
REMARK  146  A    between atoms: _385  and  _386
REMARK  147  A    between atoms: _386  and  _387
REMARK  148  A    between atoms: _392  and  _394
REMARK  149  A    between atoms: _394  and  _395
REMARK  150  A    between atoms: _394  and  _397
REMARK  151  A    between atoms: _397  and  _398
REMARK  152  A    between atoms: _408  and  _410
REMARK  153  A    between atoms: _410  and  _411
REMARK  154  A    between atoms: _413  and  _415
REMARK  155  A    between atoms: _415  and  _416
REMARK  156  A    between atoms: _415  and  _418
REMARK  157  A    between atoms: _418  and  _419
REMARK                            x       y       z     vdW  Elec       q    Type
REMARK                         _______ _______ _______ _____ _____    ______ ____
ROOT
ATOM      1  O   HOH     1     -20.097   3.550  35.489  0.00  0.00    +0.000 OA
ENDROOT
TORSDOF 0
REMARK  Name = ../refined-set-2016/4jfs/4jfs_pocket.pdb
REMARK  157 active torsions:
REMARK  status: ('A' for Active; 'I' for Inactive)
REMARK    1  A    between atoms: _1  and  _3
REMARK    2  A    between atoms: _3  and  _4
REMARK    3  A    between atoms: _3  and  _6
REMARK    4  A    between atoms: _6  and  _7
REMARK    5  A    between atoms: _13  and  _15
REMARK    6  A    between atoms: _15  and  _16
REMARK    7  A    between atoms: _15  and  _18
REMARK    8  A    between atoms: _18  and  _19
REMARK    9  A    between atoms: _22  and  _24
REMARK   10  A    between atoms: _24  and  _25
REMARK   11  A    between atoms: _24  and  _27
REMARK   12  A    between atoms: _27  and  _28
REMARK   13  A    between atoms: _33  and  _35
REMARK   14  A    between atoms: _35  and  _36
REMARK   15  A    between atoms: _35  and  _38
REMARK   16  A    between atoms: _38  and  _39
REMARK   17  A    between atoms: _44  and  _45
REMARK   18  A    between atoms: _47  and  _49
REMARK   19  A    between atoms: _49  and  _50
REMARK   20  A    between atoms: _53  and  _55
REMARK   21  A    between atoms: _55  and  _56
REMARK   22  A    between atoms: _59  and  _61
REMARK   23  A    between atoms: _61  and  _62
REMARK   24  A    between atoms: _61  and  _64
REMARK   25  A    between atoms: _64  and  _65
REMARK   26  A    between atoms: _65  and  _66
REMARK   27  A    between atoms: _69  and  _71
REMARK   28  A    between atoms: _71  and  _72
REMARK   29  A    between atoms: _71  and  _74
REMARK   30  A    between atoms: _74  and  _75
REMARK   31  A    between atoms: _85  and  _87
REMARK   32  A    between atoms: _87  and  _88
REMARK   33  A    between atoms: _87  and  _90
REMARK   34  A    between atoms: _90  and  _91
REMARK   35  A    between atoms: _101  and  _103
REMARK   36  A    between atoms: _103  and  _104
REMARK   37  A    between atoms: _103  and  _106
REMARK   38  A    between atoms: _106  and  _107
REMARK   39  A    between atoms: _107  and  _108
REMARK   40  A    between atoms: _108  and  _109
REMARK   41  A    between atoms: _109  and  _110
REMARK   42  A    between atoms: _114  and  _116
REMARK   43  A    between atoms: _116  and  _117
REMARK   44  A    between atoms: _116  and  _119
REMARK   45  A    between atoms: _119  and  _120
REMARK   46  A    between atoms: _123  and  _125
REMARK   47  A    between atoms: _125  and  _126
REMARK   48  A    between atoms: _125  and  _128
REMARK   49  A    between atoms: _128  and  _129
REMARK   50  A    between atoms: _134  and  _136
REMARK   51  A    between atoms: _136  and  _137
REMARK   52  A    between atoms: _136  and  _139
REMARK   53  A    between atoms: _139  and  _140
REMARK   54  A    between atoms: _145  and  _147
REMARK   55  A    between atoms: _147  and  _148
REMARK   56  A    between atoms: _147  and  _150
REMARK   57  A    between atoms: _150  and  _151
REMARK   58  A    between atoms: _156  and  _157
REMARK   59  A    between atoms: _159  and  _161
REMARK   60  A    between atoms: _161  and  _162
REMARK   61  A    between atoms: _161  and  _164
REMARK   62  A    between atoms: _164  and  _165
REMARK   63  A    between atoms: _167  and  _169
REMARK   64  A    between atoms: _169  and  _170
REMARK   65  A    between atoms: _169  and  _172
REMARK   66  A    between atoms: _172  and  _173
REMARK   67  A    between atoms: _173  and  _174
REMARK   68  A    between atoms: _176  and  _178
REMARK   69  A    between atoms: _178  and  _179
REMARK   70  A    between atoms: _178  and  _181
REMARK   71  A    between atoms: _181  and  _182
REMARK   72  A    between atoms: _192  and  _194
REMARK   73  A    between atoms: _194  and  _195
REMARK   74  A    between atoms: _194  and  _197
REMARK   75  A    between atoms: _197  and  _198
REMARK   76  A    between atoms: _208  and  _210
REMARK   77  A    between atoms: _210  and  _211
REMARK   78  A    between atoms: _210  and  _213
REMARK   79  A    between atoms: _213  and  _214
REMARK   80  A    between atoms: _220  and  _222
REMARK   81  A    between atoms: _222  and  _223
REMARK   82  A    between atoms: _222  and  _225
REMARK   83  A    between atoms: _225  and  _226
REMARK   84  A    between atoms: _229  and  _231
REMARK   85  A    between atoms: _231  and  _232
REMARK   86  A    between atoms: _234  and  _236
REMARK   87  A    between atoms: _236  and  _237
REMARK   88  A    between atoms: _236  and  _239
REMARK   89  A    between atoms: _239  and  _240
REMARK   90  A    between atoms: _243  and  _245
REMARK   91  A    between atoms: _245  and  _246
REMARK   92  A    between atoms: _245  and  _248
REMARK   93  A    between atoms: _248  and  _249
REMARK   94  A    between atoms: _259  and  _261
REMARK   95  A    between atoms: _261  and  _262
REMARK   96  A    between atoms: _261  and  _264
REMARK   97  A    between atoms: _264  and  _265
REMARK   98  A    between atoms: _270  and  _272
REMARK   99  A    between atoms: _272  and  _273
REMARK  100  A    between atoms: _272  and  _275
REMARK  101  A    between atoms: _275  and  _276
REMARK  102  A    between atoms: _276  and  _277
REMARK  103  A    between atoms: _277  and  _278
REMARK  104  A    between atoms: _287  and  _289
REMARK  105  A    between atoms: _289  and  _290
REMARK  106  A    between atoms: _289  and  _292
REMARK  107  A    between atoms: _292  and  _293
REMARK  108  A    between atoms: _293  and  _294
REMARK  109  A    between atoms: _294  and  _295
REMARK  110  A    between atoms: _304  and  _306
REMARK  111  A    between atoms: _306  and  _307
REMARK  112  A    between atoms: _306  and  _309
REMARK  113  A    between atoms: _309  and  _310
REMARK  114  A    between atoms: _312  and  _314
REMARK  115  A    between atoms: _314  and  _315
REMARK  116  A    between atoms: _317  and  _319
REMARK  117  A    between atoms: _319  and  _320
REMARK  118  A    between atoms: _319  and  _322
REMARK  119  A    between atoms: _322  and  _323
REMARK  120  A    between atoms: _323  and  _324
REMARK  121  A    between atoms: _327  and  _329
REMARK  122  A    between atoms: _329  and  _330
REMARK  123  A    between atoms: _329  and  _332
REMARK  124  A    between atoms: _332  and  _333
REMARK  125  A    between atoms: _333  and  _334
REMARK  126  A    between atoms: _334  and  _335
REMARK  127  A    between atoms: _344  and  _346
REMARK  128  A    between atoms: _346  and  _347
REMARK  129  A    between atoms: _346  and  _349
REMARK  130  A    between atoms: _351  and  _353
REMARK  131  A    between atoms: _353  and  _354
REMARK  132  A    between atoms: _353  and  _356
REMARK  133  A    between atoms: _356  and  _357
REMARK  134  A    between atoms: _357  and  _358
REMARK  135  A    between atoms: _360  and  _362
REMARK  136  A    between atoms: _362  and  _363
REMARK  137  A    between atoms: _362  and  _365
REMARK  138  A    between atoms: _365  and  _366
REMARK  139  A    between atoms: _369  and  _371
REMARK  140  A    between atoms: _371  and  _372
REMARK  141  A    between atoms: _371  and  _374
REMARK  142  A    between atoms: _374  and  _375
REMARK  143  A    between atoms: _380  and  _382
REMARK  144  A    between atoms: _382  and  _383
REMARK  145  A    between atoms: _382  and  _385
REMARK  146  A    between atoms: _385  and  _386
REMARK  147  A    between atoms: _386  and  _387
REMARK  148  A    between atoms: _392  and  _394
REMARK  149  A    between atoms: _394  and  _395
REMARK  150  A    between atoms: _394  and  _397
REMARK  151  A    between atoms: _397  and  _398
REMARK  152  A    between atoms: _408  and  _410
REMARK  153  A    between atoms: _410  and  _411
REMARK  154  A    between atoms: _413  and  _415
REMARK  155  A    between atoms: _415  and  _416
REMARK  156  A    between atoms: _415  and  _418
REMARK  157  A    between atoms: _418  and  _419
REMARK                            x       y       z     vdW  Elec       q    Type
REMARK                         _______ _______ _______ _____ _____    ______ ____
ROOT
ATOM      1  O   HOH     1     -21.367  20.434  30.528  0.00  0.00    +0.000 OA
ENDROOT
TORSDOF 0
REMARK  Name = ../refined-set-2016/4jfs/4jfs_pocket.pdb
REMARK  157 active torsions:
REMARK  status: ('A' for Active; 'I' for Inactive)
REMARK    1  A    between atoms: _1  and  _3
REMARK    2  A    between atoms: _3  and  _4
REMARK    3  A    between atoms: _3  and  _6
REMARK    4  A    between atoms: _6  and  _7
REMARK    5  A    between atoms: _13  and  _15
REMARK    6  A    between atoms: _15  and  _16
REMARK    7  A    between atoms: _15  and  _18
REMARK    8  A    between atoms: _18  and  _19
REMARK    9  A    between atoms: _22  and  _24
REMARK   10  A    between atoms: _24  and  _25
REMARK   11  A    between atoms: _24  and  _27
REMARK   12  A    between atoms: _27  and  _28
REMARK   13  A    between atoms: _33  and  _35
REMARK   14  A    between atoms: _35  and  _36
REMARK   15  A    between atoms: _35  and  _38
REMARK   16  A    between atoms: _38  and  _39
REMARK   17  A    between atoms: _44  and  _45
REMARK   18  A    between atoms: _47  and  _49
REMARK   19  A    between atoms: _49  and  _50
REMARK   20  A    between atoms: _53  and  _55
REMARK   21  A    between atoms: _55  and  _56
REMARK   22  A    between atoms: _59  and  _61
REMARK   23  A    between atoms: _61  and  _62
REMARK   24  A    between atoms: _61  and  _64
REMARK   25  A    between atoms: _64  and  _65
REMARK   26  A    between atoms: _65  and  _66
REMARK   27  A    between atoms: _69  and  _71
REMARK   28  A    between atoms: _71  and  _72
REMARK   29  A    between atoms: _71  and  _74
REMARK   30  A    between atoms: _74  and  _75
REMARK   31  A    between atoms: _85  and  _87
REMARK   32  A    between atoms: _87  and  _88
REMARK   33  A    between atoms: _87  and  _90
REMARK   34  A    between atoms: _90  and  _91
REMARK   35  A    between atoms: _101  and  _103
REMARK   36  A    between atoms: _103  and  _104
REMARK   37  A    between atoms: _103  and  _106
REMARK   38  A    between atoms: _106  and  _107
REMARK   39  A    between atoms: _107  and  _108
REMARK   40  A    between atoms: _108  and  _109
REMARK   41  A    between atoms: _109  and  _110
REMARK   42  A    between atoms: _114  and  _116
REMARK   43  A    between atoms: _116  and  _117
REMARK   44  A    between atoms: _116  and  _119
REMARK   45  A    between atoms: _119  and  _120
REMARK   46  A    between atoms: _123  and  _125
REMARK   47  A    between atoms: _125  and  _126
REMARK   48  A    between atoms: _125  and  _128
REMARK   49  A    between atoms: _128  and  _129
REMARK   50  A    between atoms: _134  and  _136
REMARK   51  A    between atoms: _136  and  _137
REMARK   52  A    between atoms: _136  and  _139
REMARK   53  A    between atoms: _139  and  _140
REMARK   54  A    between atoms: _145  and  _147
REMARK   55  A    between atoms: _147  and  _148
REMARK   56  A    between atoms: _147  and  _150
REMARK   57  A    between atoms: _150  and  _151
REMARK   58  A    between atoms: _156  and  _157
REMARK   59  A    between atoms: _159  and  _161
REMARK   60  A    between atoms: _161  and  _162
REMARK   61  A    between atoms: _161  and  _164
REMARK   62  A    between atoms: _164  and  _165
REMARK   63  A    between atoms: _167  and  _169
REMARK   64  A    between atoms: _169  and  _170
REMARK   65  A    between atoms: _169  and  _172
REMARK   66  A    between atoms: _172  and  _173
REMARK   67  A    between atoms: _173  and  _174
REMARK   68  A    between atoms: _176  and  _178
REMARK   69  A    between atoms: _178  and  _179
REMARK   70  A    between atoms: _178  and  _181
REMARK   71  A    between atoms: _181  and  _182
REMARK   72  A    between atoms: _192  and  _194
REMARK   73  A    between atoms: _194  and  _195
REMARK   74  A    between atoms: _194  and  _197
REMARK   75  A    between atoms: _197  and  _198
REMARK   76  A    between atoms: _208  and  _210
REMARK   77  A    between atoms: _210  and  _211
REMARK   78  A    between atoms: _210  and  _213
REMARK   79  A    between atoms: _213  and  _214
REMARK   80  A    between atoms: _220  and  _222
REMARK   81  A    between atoms: _222  and  _223
REMARK   82  A    between atoms: _222  and  _225
REMARK   83  A    between atoms: _225  and  _226
REMARK   84  A    between atoms: _229  and  _231
REMARK   85  A    between atoms: _231  and  _232
REMARK   86  A    between atoms: _234  and  _236
REMARK   87  A    between atoms: _236  and  _237
REMARK   88  A    between atoms: _236  and  _239
REMARK   89  A    between atoms: _239  and  _240
REMARK   90  A    between atoms: _243  and  _245
REMARK   91  A    between atoms: _245  and  _246
REMARK   92  A    between atoms: _245  and  _248
REMARK   93  A    between atoms: _248  and  _249
REMARK   94  A    between atoms: _259  and  _261
REMARK   95  A    between atoms: _261  and  _262
REMARK   96  A    between atoms: _261  and  _264
REMARK   97  A    between atoms: _264  and  _265
REMARK   98  A    between atoms: _270  and  _272
REMARK   99  A    between atoms: _272  and  _273
REMARK  100  A    between atoms: _272  and  _275
REMARK  101  A    between atoms: _275  and  _276
REMARK  102  A    between atoms: _276  and  _277
REMARK  103  A    between atoms: _277  and  _278
REMARK  104  A    between atoms: _287  and  _289
REMARK  105  A    between atoms: _289  and  _290
REMARK  106  A    between atoms: _289  and  _292
REMARK  107  A    between atoms: _292  and  _293
REMARK  108  A    between atoms: _293  and  _294
REMARK  109  A    between atoms: _294  and  _295
REMARK  110  A    between atoms: _304  and  _306
REMARK  111  A    between atoms: _306  and  _307
REMARK  112  A    between atoms: _306  and  _309
REMARK  113  A    between atoms: _309  and  _310
REMARK  114  A    between atoms: _312  and  _314
REMARK  115  A    between atoms: _314  and  _315
REMARK  116  A    between atoms: _317  and  _319
REMARK  117  A    between atoms: _319  and  _320
REMARK  118  A    between atoms: _319  and  _322
REMARK  119  A    between atoms: _322  and  _323
REMARK  120  A    between atoms: _323  and  _324
REMARK  121  A    between atoms: _327  and  _329
REMARK  122  A    between atoms: _329  and  _330
REMARK  123  A    between atoms: _329  and  _332
REMARK  124  A    between atoms: _332  and  _333
REMARK  125  A    between atoms: _333  and  _334
REMARK  126  A    between atoms: _334  and  _335
REMARK  127  A    between atoms: _344  and  _346
REMARK  128  A    between atoms: _346  and  _347
REMARK  129  A    between atoms: _346  and  _349
REMARK  130  A    between atoms: _351  and  _353
REMARK  131  A    between atoms: _353  and  _354
REMARK  132  A    between atoms: _353  and  _356
REMARK  133  A    between atoms: _356  and  _357
REMARK  134  A    between atoms: _357  and  _358
REMARK  135  A    between atoms: _360  and  _362
REMARK  136  A    between atoms: _362  and  _363
REMARK  137  A    between atoms: _362  and  _365
REMARK  138  A    between atoms: _365  and  _366
REMARK  139  A    between atoms: _369  and  _371
REMARK  140  A    between atoms: _371  and  _372
REMARK  141  A    between atoms: _371  and  _374
REMARK  142  A    between atoms: _374  and  _375
REMARK  143  A    between atoms: _380  and  _382
REMARK  144  A    between atoms: _382  and  _383
REMARK  145  A    between atoms: _382  and  _385
REMARK  146  A    between atoms: _385  and  _386
REMARK  147  A    between atoms: _386  and  _387
REMARK  148  A    between atoms: _392  and  _394
REMARK  149  A    between atoms: _394  and  _395
REMARK  150  A    between atoms: _394  and  _397
REMARK  151  A    between atoms: _397  and  _398
REMARK  152  A    between atoms: _408  and  _410
REMARK  153  A    between atoms: _410  and  _411
REMARK  154  A    between atoms: _413  and  _415
REMARK  155  A    between atoms: _415  and  _416
REMARK  156  A    between atoms: _415  and  _418
REMARK  157  A    between atoms: _418  and  _419
REMARK                            x       y       z     vdW  Elec       q    Type
REMARK                         _______ _______ _______ _____ _____    ______ ____
ROOT
ATOM      1  O   HOH     1     -21.622  11.225  32.918  0.00  0.00    +0.000 OA
ENDROOT
TORSDOF 0
REMARK  Name = ../refined-set-2016/4jfs/4jfs_pocket.pdb
REMARK  157 active torsions:
REMARK  status: ('A' for Active; 'I' for Inactive)
REMARK    1  A    between atoms: _1  and  _3
REMARK    2  A    between atoms: _3  and  _4
REMARK    3  A    between atoms: _3  and  _6
REMARK    4  A    between atoms: _6  and  _7
REMARK    5  A    between atoms: _13  and  _15
REMARK    6  A    between atoms: _15  and  _16
REMARK    7  A    between atoms: _15  and  _18
REMARK    8  A    between atoms: _18  and  _19
REMARK    9  A    between atoms: _22  and  _24
REMARK   10  A    between atoms: _24  and  _25
REMARK   11  A    between atoms: _24  and  _27
REMARK   12  A    between atoms: _27  and  _28
REMARK   13  A    between atoms: _33  and  _35
REMARK   14  A    between atoms: _35  and  _36
REMARK   15  A    between atoms: _35  and  _38
REMARK   16  A    between atoms: _38  and  _39
REMARK   17  A    between atoms: _44  and  _45
REMARK   18  A    between atoms: _47  and  _49
REMARK   19  A    between atoms: _49  and  _50
REMARK   20  A    between atoms: _53  and  _55
REMARK   21  A    between atoms: _55  and  _56
REMARK   22  A    between atoms: _59  and  _61
REMARK   23  A    between atoms: _61  and  _62
REMARK   24  A    between atoms: _61  and  _64
REMARK   25  A    between atoms: _64  and  _65
REMARK   26  A    between atoms: _65  and  _66
REMARK   27  A    between atoms: _69  and  _71
REMARK   28  A    between atoms: _71  and  _72
REMARK   29  A    between atoms: _71  and  _74
REMARK   30  A    between atoms: _74  and  _75
REMARK   31  A    between atoms: _85  and  _87
REMARK   32  A    between atoms: _87  and  _88
REMARK   33  A    between atoms: _87  and  _90
REMARK   34  A    between atoms: _90  and  _91
REMARK   35  A    between atoms: _101  and  _103
REMARK   36  A    between atoms: _103  and  _104
REMARK   37  A    between atoms: _103  and  _106
REMARK   38  A    between atoms: _106  and  _107
REMARK   39  A    between atoms: _107  and  _108
REMARK   40  A    between atoms: _108  and  _109
REMARK   41  A    between atoms: _109  and  _110
REMARK   42  A    between atoms: _114  and  _116
REMARK   43  A    between atoms: _116  and  _117
REMARK   44  A    between atoms: _116  and  _119
REMARK   45  A    between atoms: _119  and  _120
REMARK   46  A    between atoms: _123  and  _125
REMARK   47  A    between atoms: _125  and  _126
REMARK   48  A    between atoms: _125  and  _128
REMARK   49  A    between atoms: _128  and  _129
REMARK   50  A    between atoms: _134  and  _136
REMARK   51  A    between atoms: _136  and  _137
REMARK   52  A    between atoms: _136  and  _139
REMARK   53  A    between atoms: _139  and  _140
REMARK   54  A    between atoms: _145  and  _147
REMARK   55  A    between atoms: _147  and  _148
REMARK   56  A    between atoms: _147  and  _150
REMARK   57  A    between atoms: _150  and  _151
REMARK   58  A    between atoms: _156  and  _157
REMARK   59  A    between atoms: _159  and  _161
REMARK   60  A    between atoms: _161  and  _162
REMARK   61  A    between atoms: _161  and  _164
REMARK   62  A    between atoms: _164  and  _165
REMARK   63  A    between atoms: _167  and  _169
REMARK   64  A    between atoms: _169  and  _170
REMARK   65  A    between atoms: _169  and  _172
REMARK   66  A    between atoms: _172  and  _173
REMARK   67  A    between atoms: _173  and  _174
REMARK   68  A    between atoms: _176  and  _178
REMARK   69  A    between atoms: _178  and  _179
REMARK   70  A    between atoms: _178  and  _181
REMARK   71  A    between atoms: _181  and  _182
REMARK   72  A    between atoms: _192  and  _194
REMARK   73  A    between atoms: _194  and  _195
REMARK   74  A    between atoms: _194  and  _197
REMARK   75  A    between atoms: _197  and  _198
REMARK   76  A    between atoms: _208  and  _210
REMARK   77  A    between atoms: _210  and  _211
REMARK   78  A    between atoms: _210  and  _213
REMARK   79  A    between atoms: _213  and  _214
REMARK   80  A    between atoms: _220  and  _222
REMARK   81  A    between atoms: _222  and  _223
REMARK   82  A    between atoms: _222  and  _225
REMARK   83  A    between atoms: _225  and  _226
REMARK   84  A    between atoms: _229  and  _231
REMARK   85  A    between atoms: _231  and  _232
REMARK   86  A    between atoms: _234  and  _236
REMARK   87  A    between atoms: _236  and  _237
REMARK   88  A    between atoms: _236  and  _239
REMARK   89  A    between atoms: _239  and  _240
REMARK   90  A    between atoms: _243  and  _245
REMARK   91  A    between atoms: _245  and  _246
REMARK   92  A    between atoms: _245  and  _248
REMARK   93  A    between atoms: _248  and  _249
REMARK   94  A    between atoms: _259  and  _261
REMARK   95  A    between atoms: _261  and  _262
REMARK   96  A    between atoms: _261  and  _264
REMARK   97  A    between atoms: _264  and  _265
REMARK   98  A    between atoms: _270  and  _272
REMARK   99  A    between atoms: _272  and  _273
REMARK  100  A    between atoms: _272  and  _275
REMARK  101  A    between atoms: _275  and  _276
REMARK  102  A    between atoms: _276  and  _277
REMARK  103  A    between atoms: _277  and  _278
REMARK  104  A    between atoms: _287  and  _289
REMARK  105  A    between atoms: _289  and  _290
REMARK  106  A    between atoms: _289  and  _292
REMARK  107  A    between atoms: _292  and  _293
REMARK  108  A    between atoms: _293  and  _294
REMARK  109  A    between atoms: _294  and  _295
REMARK  110  A    between atoms: _304  and  _306
REMARK  111  A    between atoms: _306  and  _307
REMARK  112  A    between atoms: _306  and  _309
REMARK  113  A    between atoms: _309  and  _310
REMARK  114  A    between atoms: _312  and  _314
REMARK  115  A    between atoms: _314  and  _315
REMARK  116  A    between atoms: _317  and  _319
REMARK  117  A    between atoms: _319  and  _320
REMARK  118  A    between atoms: _319  and  _322
REMARK  119  A    between atoms: _322  and  _323
REMARK  120  A    between atoms: _323  and  _324
REMARK  121  A    between atoms: _327  and  _329
REMARK  122  A    between atoms: _329  and  _330
REMARK  123  A    between atoms: _329  and  _332
REMARK  124  A    between atoms: _332  and  _333
REMARK  125  A    between atoms: _333  and  _334
REMARK  126  A    between atoms: _334  and  _335
REMARK  127  A    between atoms: _344  and  _346
REMARK  128  A    between atoms: _346  and  _347
REMARK  129  A    between atoms: _346  and  _349
REMARK  130  A    between atoms: _351  and  _353
REMARK  131  A    between atoms: _353  and  _354
REMARK  132  A    between atoms: _353  and  _356
REMARK  133  A    between atoms: _356  and  _357
REMARK  134  A    between atoms: _357  and  _358
REMARK  135  A    between atoms: _360  and  _362
REMARK  136  A    between atoms: _362  and  _363
REMARK  137  A    between atoms: _362  and  _365
REMARK  138  A    between atoms: _365  and  _366
REMARK  139  A    between atoms: _369  and  _371
REMARK  140  A    between atoms: _371  and  _372
REMARK  141  A    between atoms: _371  and  _374
REMARK  142  A    between atoms: _374  and  _375
REMARK  143  A    between atoms: _380  and  _382
REMARK  144  A    between atoms: _382  and  _383
REMARK  145  A    between atoms: _382  and  _385
REMARK  146  A    between atoms: _385  and  _386
REMARK  147  A    between atoms: _386  and  _387
REMARK  148  A    between atoms: _392  and  _394
REMARK  149  A    between atoms: _394  and  _395
REMARK  150  A    between atoms: _394  and  _397
REMARK  151  A    between atoms: _397  and  _398
REMARK  152  A    between atoms: _408  and  _410
REMARK  153  A    between atoms: _410  and  _411
REMARK  154  A    between atoms: _413  and  _415
REMARK  155  A    between atoms: _415  and  _416
REMARK  156  A    between atoms: _415  and  _418
REMARK  157  A    between atoms: _418  and  _419
REMARK                            x       y       z     vdW  Elec       q    Type
REMARK                         _______ _______ _______ _____ _____    ______ ____
ROOT
ATOM      1  O   HOH     1     -18.805  20.492  30.129  0.00  0.00    +0.000 OA
ENDROOT
TORSDOF 0
REMARK  Name = ../refined-set-2016/4jfs/4jfs_pocket.pdb
REMARK  157 active torsions:
REMARK  status: ('A' for Active; 'I' for Inactive)
REMARK    1  A    between atoms: _1  and  _3
REMARK    2  A    between atoms: _3  and  _4
REMARK    3  A    between atoms: _3  and  _6
REMARK    4  A    between atoms: _6  and  _7
REMARK    5  A    between atoms: _13  and  _15
REMARK    6  A    between atoms: _15  and  _16
REMARK    7  A    between atoms: _15  and  _18
REMARK    8  A    between atoms: _18  and  _19
REMARK    9  A    between atoms: _22  and  _24
REMARK   10  A    between atoms: _24  and  _25
REMARK   11  A    between atoms: _24  and  _27
REMARK   12  A    between atoms: _27  and  _28
REMARK   13  A    between atoms: _33  and  _35
REMARK   14  A    between atoms: _35  and  _36
REMARK   15  A    between atoms: _35  and  _38
REMARK   16  A    between atoms: _38  and  _39
REMARK   17  A    between atoms: _44  and  _45
REMARK   18  A    between atoms: _47  and  _49
REMARK   19  A    between atoms: _49  and  _50
REMARK   20  A    between atoms: _53  and  _55
REMARK   21  A    between atoms: _55  and  _56
REMARK   22  A    between atoms: _59  and  _61
REMARK   23  A    between atoms: _61  and  _62
REMARK   24  A    between atoms: _61  and  _64
REMARK   25  A    between atoms: _64  and  _65
REMARK   26  A    between atoms: _65  and  _66
REMARK   27  A    between atoms: _69  and  _71
REMARK   28  A    between atoms: _71  and  _72
REMARK   29  A    between atoms: _71  and  _74
REMARK   30  A    between atoms: _74  and  _75
REMARK   31  A    between atoms: _85  and  _87
REMARK   32  A    between atoms: _87  and  _88
REMARK   33  A    between atoms: _87  and  _90
REMARK   34  A    between atoms: _90  and  _91
REMARK   35  A    between atoms: _101  and  _103
REMARK   36  A    between atoms: _103  and  _104
REMARK   37  A    between atoms: _103  and  _106
REMARK   38  A    between atoms: _106  and  _107
REMARK   39  A    between atoms: _107  and  _108
REMARK   40  A    between atoms: _108  and  _109
REMARK   41  A    between atoms: _109  and  _110
REMARK   42  A    between atoms: _114  and  _116
REMARK   43  A    between atoms: _116  and  _117
REMARK   44  A    between atoms: _116  and  _119
REMARK   45  A    between atoms: _119  and  _120
REMARK   46  A    between atoms: _123  and  _125
REMARK   47  A    between atoms: _125  and  _126
REMARK   48  A    between atoms: _125  and  _128
REMARK   49  A    between atoms: _128  and  _129
REMARK   50  A    between atoms: _134  and  _136
REMARK   51  A    between atoms: _136  and  _137
REMARK   52  A    between atoms: _136  and  _139
REMARK   53  A    between atoms: _139  and  _140
REMARK   54  A    between atoms: _145  and  _147
REMARK   55  A    between atoms: _147  and  _148
REMARK   56  A    between atoms: _147  and  _150
REMARK   57  A    between atoms: _150  and  _151
REMARK   58  A    between atoms: _156  and  _157
REMARK   59  A    between atoms: _159  and  _161
REMARK   60  A    between atoms: _161  and  _162
REMARK   61  A    between atoms: _161  and  _164
REMARK   62  A    between atoms: _164  and  _165
REMARK   63  A    between atoms: _167  and  _169
REMARK   64  A    between atoms: _169  and  _170
REMARK   65  A    between atoms: _169  and  _172
REMARK   66  A    between atoms: _172  and  _173
REMARK   67  A    between atoms: _173  and  _174
REMARK   68  A    between atoms: _176  and  _178
REMARK   69  A    between atoms: _178  and  _179
REMARK   70  A    between atoms: _178  and  _181
REMARK   71  A    between atoms: _181  and  _182
REMARK   72  A    between atoms: _192  and  _194
REMARK   73  A    between atoms: _194  and  _195
REMARK   74  A    between atoms: _194  and  _197
REMARK   75  A    between atoms: _197  and  _198
REMARK   76  A    between atoms: _208  and  _210
REMARK   77  A    between atoms: _210  and  _211
REMARK   78  A    between atoms: _210  and  _213
REMARK   79  A    between atoms: _213  and  _214
REMARK   80  A    between atoms: _220  and  _222
REMARK   81  A    between atoms: _222  and  _223
REMARK   82  A    between atoms: _222  and  _225
REMARK   83  A    between atoms: _225  and  _226
REMARK   84  A    between atoms: _229  and  _231
REMARK   85  A    between atoms: _231  and  _232
REMARK   86  A    between atoms: _234  and  _236
REMARK   87  A    between atoms: _236  and  _237
REMARK   88  A    between atoms: _236  and  _239
REMARK   89  A    between atoms: _239  and  _240
REMARK   90  A    between atoms: _243  and  _245
REMARK   91  A    between atoms: _245  and  _246
REMARK   92  A    between atoms: _245  and  _248
REMARK   93  A    between atoms: _248  and  _249
REMARK   94  A    between atoms: _259  and  _261
REMARK   95  A    between atoms: _261  and  _262
REMARK   96  A    between atoms: _261  and  _264
REMARK   97  A    between atoms: _264  and  _265
REMARK   98  A    between atoms: _270  and  _272
REMARK   99  A    between atoms: _272  and  _273
REMARK  100  A    between atoms: _272  and  _275
REMARK  101  A    between atoms: _275  and  _276
REMARK  102  A    between atoms: _276  and  _277
REMARK  103  A    between atoms: _277  and  _278
REMARK  104  A    between atoms: _287  and  _289
REMARK  105  A    between atoms: _289  and  _290
REMARK  106  A    between atoms: _289  and  _292
REMARK  107  A    between atoms: _292  and  _293
REMARK  108  A    between atoms: _293  and  _294
REMARK  109  A    between atoms: _294  and  _295
REMARK  110  A    between atoms: _304  and  _306
REMARK  111  A    between atoms: _306  and  _307
REMARK  112  A    between atoms: _306  and  _309
REMARK  113  A    between atoms: _309  and  _310
REMARK  114  A    between atoms: _312  and  _314
REMARK  115  A    between atoms: _314  and  _315
REMARK  116  A    between atoms: _317  and  _319
REMARK  117  A    between atoms: _319  and  _320
REMARK  118  A    between atoms: _319  and  _322
REMARK  119  A    between atoms: _322  and  _323
REMARK  120  A    between atoms: _323  and  _324
REMARK  121  A    between atoms: _327  and  _329
REMARK  122  A    between atoms: _329  and  _330
REMARK  123  A    between atoms: _329  and  _332
REMARK  124  A    between atoms: _332  and  _333
REMARK  125  A    between atoms: _333  and  _334
REMARK  126  A    between atoms: _334  and  _335
REMARK  127  A    between atoms: _344  and  _346
REMARK  128  A    between atoms: _346  and  _347
REMARK  129  A    between atoms: _346  and  _349
REMARK  130  A    between atoms: _351  and  _353
REMARK  131  A    between atoms: _353  and  _354
REMARK  132  A    between atoms: _353  and  _356
REMARK  133  A    between atoms: _356  and  _357
REMARK  134  A    between atoms: _357  and  _358
REMARK  135  A    between atoms: _360  and  _362
REMARK  136  A    between atoms: _362  and  _363
REMARK  137  A    between atoms: _362  and  _365
REMARK  138  A    between atoms: _365  and  _366
REMARK  139  A    between atoms: _369  and  _371
REMARK  140  A    between atoms: _371  and  _372
REMARK  141  A    between atoms: _371  and  _374
REMARK  142  A    between atoms: _374  and  _375
REMARK  143  A    between atoms: _380  and  _382
REMARK  144  A    between atoms: _382  and  _383
REMARK  145  A    between atoms: _382  and  _385
REMARK  146  A    between atoms: _385  and  _386
REMARK  147  A    between atoms: _386  and  _387
REMARK  148  A    between atoms: _392  and  _394
REMARK  149  A    between atoms: _394  and  _395
REMARK  150  A    between atoms: _394  and  _397
REMARK  151  A    between atoms: _397  and  _398
REMARK  152  A    between atoms: _408  and  _410
REMARK  153  A    between atoms: _410  and  _411
REMARK  154  A    between atoms: _413  and  _415
REMARK  155  A    between atoms: _415  and  _416
REMARK  156  A    between atoms: _415  and  _418
REMARK  157  A    between atoms: _418  and  _419
REMARK                            x       y       z     vdW  Elec       q    Type
REMARK                         _______ _______ _______ _____ _____    ______ ____
ROOT
ATOM      1  O   HOH     1     -14.398   9.988  36.643  0.00  0.00    +0.000 OA
ENDROOT
TORSDOF 0
REMARK  Name = ../refined-set-2016/4jfs/4jfs_pocket.pdb
REMARK  157 active torsions:
REMARK  status: ('A' for Active; 'I' for Inactive)
REMARK    1  A    between atoms: _1  and  _3
REMARK    2  A    between atoms: _3  and  _4
REMARK    3  A    between atoms: _3  and  _6
REMARK    4  A    between atoms: _6  and  _7
REMARK    5  A    between atoms: _13  and  _15
REMARK    6  A    between atoms: _15  and  _16
REMARK    7  A    between atoms: _15  and  _18
REMARK    8  A    between atoms: _18  and  _19
REMARK    9  A    between atoms: _22  and  _24
REMARK   10  A    between atoms: _24  and  _25
REMARK   11  A    between atoms: _24  and  _27
REMARK   12  A    between atoms: _27  and  _28
REMARK   13  A    between atoms: _33  and  _35
REMARK   14  A    between atoms: _35  and  _36
REMARK   15  A    between atoms: _35  and  _38
REMARK   16  A    between atoms: _38  and  _39
REMARK   17  A    between atoms: _44  and  _45
REMARK   18  A    between atoms: _47  and  _49
REMARK   19  A    between atoms: _49  and  _50
REMARK   20  A    between atoms: _53  and  _55
REMARK   21  A    between atoms: _55  and  _56
REMARK   22  A    between atoms: _59  and  _61
REMARK   23  A    between atoms: _61  and  _62
REMARK   24  A    between atoms: _61  and  _64
REMARK   25  A    between atoms: _64  and  _65
REMARK   26  A    between atoms: _65  and  _66
REMARK   27  A    between atoms: _69  and  _71
REMARK   28  A    between atoms: _71  and  _72
REMARK   29  A    between atoms: _71  and  _74
REMARK   30  A    between atoms: _74  and  _75
REMARK   31  A    between atoms: _85  and  _87
REMARK   32  A    between atoms: _87  and  _88
REMARK   33  A    between atoms: _87  and  _90
REMARK   34  A    between atoms: _90  and  _91
REMARK   35  A    between atoms: _101  and  _103
REMARK   36  A    between atoms: _103  and  _104
REMARK   37  A    between atoms: _103  and  _106
REMARK   38  A    between atoms: _106  and  _107
REMARK   39  A    between atoms: _107  and  _108
REMARK   40  A    between atoms: _108  and  _109
REMARK   41  A    between atoms: _109  and  _110
REMARK   42  A    between atoms: _114  and  _116
REMARK   43  A    between atoms: _116  and  _117
REMARK   44  A    between atoms: _116  and  _119
REMARK   45  A    between atoms: _119  and  _120
REMARK   46  A    between atoms: _123  and  _125
REMARK   47  A    between atoms: _125  and  _126
REMARK   48  A    between atoms: _125  and  _128
REMARK   49  A    between atoms: _128  and  _129
REMARK   50  A    between atoms: _134  and  _136
REMARK   51  A    between atoms: _136  and  _137
REMARK   52  A    between atoms: _136  and  _139
REMARK   53  A    between atoms: _139  and  _140
REMARK   54  A    between atoms: _145  and  _147
REMARK   55  A    between atoms: _147  and  _148
REMARK   56  A    between atoms: _147  and  _150
REMARK   57  A    between atoms: _150  and  _151
REMARK   58  A    between atoms: _156  and  _157
REMARK   59  A    between atoms: _159  and  _161
REMARK   60  A    between atoms: _161  and  _162
REMARK   61  A    between atoms: _161  and  _164
REMARK   62  A    between atoms: _164  and  _165
REMARK   63  A    between atoms: _167  and  _169
REMARK   64  A    between atoms: _169  and  _170
REMARK   65  A    between atoms: _169  and  _172
REMARK   66  A    between atoms: _172  and  _173
REMARK   67  A    between atoms: _173  and  _174
REMARK   68  A    between atoms: _176  and  _178
REMARK   69  A    between atoms: _178  and  _179
REMARK   70  A    between atoms: _178  and  _181
REMARK   71  A    between atoms: _181  and  _182
REMARK   72  A    between atoms: _192  and  _194
REMARK   73  A    between atoms: _194  and  _195
REMARK   74  A    between atoms: _194  and  _197
REMARK   75  A    between atoms: _197  and  _198
REMARK   76  A    between atoms: _208  and  _210
REMARK   77  A    between atoms: _210  and  _211
REMARK   78  A    between atoms: _210  and  _213
REMARK   79  A    between atoms: _213  and  _214
REMARK   80  A    between atoms: _220  and  _222
REMARK   81  A    between atoms: _222  and  _223
REMARK   82  A    between atoms: _222  and  _225
REMARK   83  A    between atoms: _225  and  _226
REMARK   84  A    between atoms: _229  and  _231
REMARK   85  A    between atoms: _231  and  _232
REMARK   86  A    between atoms: _234  and  _236
REMARK   87  A    between atoms: _236  and  _237
REMARK   88  A    between atoms: _236  and  _239
REMARK   89  A    between atoms: _239  and  _240
REMARK   90  A    between atoms: _243  and  _245
REMARK   91  A    between atoms: _245  and  _246
REMARK   92  A    between atoms: _245  and  _248
REMARK   93  A    between atoms: _248  and  _249
REMARK   94  A    between atoms: _259  and  _261
REMARK   95  A    between atoms: _261  and  _262
REMARK   96  A    between atoms: _261  and  _264
REMARK   97  A    between atoms: _264  and  _265
REMARK   98  A    between atoms: _270  and  _272
REMARK   99  A    between atoms: _272  and  _273
REMARK  100  A    between atoms: _272  and  _275
REMARK  101  A    between atoms: _275  and  _276
REMARK  102  A    between atoms: _276  and  _277
REMARK  103  A    between atoms: _277  and  _278
REMARK  104  A    between atoms: _287  and  _289
REMARK  105  A    between atoms: _289  and  _290
REMARK  106  A    between atoms: _289  and  _292
REMARK  107  A    between atoms: _292  and  _293
REMARK  108  A    between atoms: _293  and  _294
REMARK  109  A    between atoms: _294  and  _295
REMARK  110  A    between atoms: _304  and  _306
REMARK  111  A    between atoms: _306  and  _307
REMARK  112  A    between atoms: _306  and  _309
REMARK  113  A    between atoms: _309  and  _310
REMARK  114  A    between atoms: _312  and  _314
REMARK  115  A    between atoms: _314  and  _315
REMARK  116  A    between atoms: _317  and  _319
REMARK  117  A    between atoms: _319  and  _320
REMARK  118  A    between atoms: _319  and  _322
REMARK  119  A    between atoms: _322  and  _323
REMARK  120  A    between atoms: _323  and  _324
REMARK  121  A    between atoms: _327  and  _329
REMARK  122  A    between atoms: _329  and  _330
REMARK  123  A    between atoms: _329  and  _332
REMARK  124  A    between atoms: _332  and  _333
REMARK  125  A    between atoms: _333  and  _334
REMARK  126  A    between atoms: _334  and  _335
REMARK  127  A    between atoms: _344  and  _346
REMARK  128  A    between atoms: _346  and  _347
REMARK  129  A    between atoms: _346  and  _349
REMARK  130  A    between atoms: _351  and  _353
REMARK  131  A    between atoms: _353  and  _354
REMARK  132  A    between atoms: _353  and  _356
REMARK  133  A    between atoms: _356  and  _357
REMARK  134  A    between atoms: _357  and  _358
REMARK  135  A    between atoms: _360  and  _362
REMARK  136  A    between atoms: _362  and  _363
REMARK  137  A    between atoms: _362  and  _365
REMARK  138  A    between atoms: _365  and  _366
REMARK  139  A    between atoms: _369  and  _371
REMARK  140  A    between atoms: _371  and  _372
REMARK  141  A    between atoms: _371  and  _374
REMARK  142  A    between atoms: _374  and  _375
REMARK  143  A    between atoms: _380  and  _382
REMARK  144  A    between atoms: _382  and  _383
REMARK  145  A    between atoms: _382  and  _385
REMARK  146  A    between atoms: _385  and  _386
REMARK  147  A    between atoms: _386  and  _387
REMARK  148  A    between atoms: _392  and  _394
REMARK  149  A    between atoms: _394  and  _395
REMARK  150  A    between atoms: _394  and  _397
REMARK  151  A    between atoms: _397  and  _398
REMARK  152  A    between atoms: _408  and  _410
REMARK  153  A    between atoms: _410  and  _411
REMARK  154  A    between atoms: _413  and  _415
REMARK  155  A    between atoms: _415  and  _416
REMARK  156  A    between atoms: _415  and  _418
REMARK  157  A    between atoms: _418  and  _419
REMARK                            x       y       z     vdW  Elec       q    Type
REMARK                         _______ _______ _______ _____ _____    ______ ____
ROOT
ATOM      1  O   HOH     1     -23.972  11.567  30.885  0.00  0.00    +0.000 OA
ENDROOT
TORSDOF 0
REMARK  Name = ../refined-set-2016/4jfs/4jfs_pocket.pdb
REMARK  157 active torsions:
REMARK  status: ('A' for Active; 'I' for Inactive)
REMARK    1  A    between atoms: _1  and  _3
REMARK    2  A    between atoms: _3  and  _4
REMARK    3  A    between atoms: _3  and  _6
REMARK    4  A    between atoms: _6  and  _7
REMARK    5  A    between atoms: _13  and  _15
REMARK    6  A    between atoms: _15  and  _16
REMARK    7  A    between atoms: _15  and  _18
REMARK    8  A    between atoms: _18  and  _19
REMARK    9  A    between atoms: _22  and  _24
REMARK   10  A    between atoms: _24  and  _25
REMARK   11  A    between atoms: _24  and  _27
REMARK   12  A    between atoms: _27  and  _28
REMARK   13  A    between atoms: _33  and  _35
REMARK   14  A    between atoms: _35  and  _36
REMARK   15  A    between atoms: _35  and  _38
REMARK   16  A    between atoms: _38  and  _39
REMARK   17  A    between atoms: _44  and  _45
REMARK   18  A    between atoms: _47  and  _49
REMARK   19  A    between atoms: _49  and  _50
REMARK   20  A    between atoms: _53  and  _55
REMARK   21  A    between atoms: _55  and  _56
REMARK   22  A    between atoms: _59  and  _61
REMARK   23  A    between atoms: _61  and  _62
REMARK   24  A    between atoms: _61  and  _64
REMARK   25  A    between atoms: _64  and  _65
REMARK   26  A    between atoms: _65  and  _66
REMARK   27  A    between atoms: _69  and  _71
REMARK   28  A    between atoms: _71  and  _72
REMARK   29  A    between atoms: _71  and  _74
REMARK   30  A    between atoms: _74  and  _75
REMARK   31  A    between atoms: _85  and  _87
REMARK   32  A    between atoms: _87  and  _88
REMARK   33  A    between atoms: _87  and  _90
REMARK   34  A    between atoms: _90  and  _91
REMARK   35  A    between atoms: _101  and  _103
REMARK   36  A    between atoms: _103  and  _104
REMARK   37  A    between atoms: _103  and  _106
REMARK   38  A    between atoms: _106  and  _107
REMARK   39  A    between atoms: _107  and  _108
REMARK   40  A    between atoms: _108  and  _109
REMARK   41  A    between atoms: _109  and  _110
REMARK   42  A    between atoms: _114  and  _116
REMARK   43  A    between atoms: _116  and  _117
REMARK   44  A    between atoms: _116  and  _119
REMARK   45  A    between atoms: _119  and  _120
REMARK   46  A    between atoms: _123  and  _125
REMARK   47  A    between atoms: _125  and  _126
REMARK   48  A    between atoms: _125  and  _128
REMARK   49  A    between atoms: _128  and  _129
REMARK   50  A    between atoms: _134  and  _136
REMARK   51  A    between atoms: _136  and  _137
REMARK   52  A    between atoms: _136  and  _139
REMARK   53  A    between atoms: _139  and  _140
REMARK   54  A    between atoms: _145  and  _147
REMARK   55  A    between atoms: _147  and  _148
REMARK   56  A    between atoms: _147  and  _150
REMARK   57  A    between atoms: _150  and  _151
REMARK   58  A    between atoms: _156  and  _157
REMARK   59  A    between atoms: _159  and  _161
REMARK   60  A    between atoms: _161  and  _162
REMARK   61  A    between atoms: _161  and  _164
REMARK   62  A    between atoms: _164  and  _165
REMARK   63  A    between atoms: _167  and  _169
REMARK   64  A    between atoms: _169  and  _170
REMARK   65  A    between atoms: _169  and  _172
REMARK   66  A    between atoms: _172  and  _173
REMARK   67  A    between atoms: _173  and  _174
REMARK   68  A    between atoms: _176  and  _178
REMARK   69  A    between atoms: _178  and  _179
REMARK   70  A    between atoms: _178  and  _181
REMARK   71  A    between atoms: _181  and  _182
REMARK   72  A    between atoms: _192  and  _194
REMARK   73  A    between atoms: _194  and  _195
REMARK   74  A    between atoms: _194  and  _197
REMARK   75  A    between atoms: _197  and  _198
REMARK   76  A    between atoms: _208  and  _210
REMARK   77  A    between atoms: _210  and  _211
REMARK   78  A    between atoms: _210  and  _213
REMARK   79  A    between atoms: _213  and  _214
REMARK   80  A    between atoms: _220  and  _222
REMARK   81  A    between atoms: _222  and  _223
REMARK   82  A    between atoms: _222  and  _225
REMARK   83  A    between atoms: _225  and  _226
REMARK   84  A    between atoms: _229  and  _231
REMARK   85  A    between atoms: _231  and  _232
REMARK   86  A    between atoms: _234  and  _236
REMARK   87  A    between atoms: _236  and  _237
REMARK   88  A    between atoms: _236  and  _239
REMARK   89  A    between atoms: _239  and  _240
REMARK   90  A    between atoms: _243  and  _245
REMARK   91  A    between atoms: _245  and  _246
REMARK   92  A    between atoms: _245  and  _248
REMARK   93  A    between atoms: _248  and  _249
REMARK   94  A    between atoms: _259  and  _261
REMARK   95  A    between atoms: _261  and  _262
REMARK   96  A    between atoms: _261  and  _264
REMARK   97  A    between atoms: _264  and  _265
REMARK   98  A    between atoms: _270  and  _272
REMARK   99  A    between atoms: _272  and  _273
REMARK  100  A    between atoms: _272  and  _275
REMARK  101  A    between atoms: _275  and  _276
REMARK  102  A    between atoms: _276  and  _277
REMARK  103  A    between atoms: _277  and  _278
REMARK  104  A    between atoms: _287  and  _289
REMARK  105  A    between atoms: _289  and  _290
REMARK  106  A    between atoms: _289  and  _292
REMARK  107  A    between atoms: _292  and  _293
REMARK  108  A    between atoms: _293  and  _294
REMARK  109  A    between atoms: _294  and  _295
REMARK  110  A    between atoms: _304  and  _306
REMARK  111  A    between atoms: _306  and  _307
REMARK  112  A    between atoms: _306  and  _309
REMARK  113  A    between atoms: _309  and  _310
REMARK  114  A    between atoms: _312  and  _314
REMARK  115  A    between atoms: _314  and  _315
REMARK  116  A    between atoms: _317  and  _319
REMARK  117  A    between atoms: _319  and  _320
REMARK  118  A    between atoms: _319  and  _322
REMARK  119  A    between atoms: _322  and  _323
REMARK  120  A    between atoms: _323  and  _324
REMARK  121  A    between atoms: _327  and  _329
REMARK  122  A    between atoms: _329  and  _330
REMARK  123  A    between atoms: _329  and  _332
REMARK  124  A    between atoms: _332  and  _333
REMARK  125  A    between atoms: _333  and  _334
REMARK  126  A    between atoms: _334  and  _335
REMARK  127  A    between atoms: _344  and  _346
REMARK  128  A    between atoms: _346  and  _347
REMARK  129  A    between atoms: _346  and  _349
REMARK  130  A    between atoms: _351  and  _353
REMARK  131  A    between atoms: _353  and  _354
REMARK  132  A    between atoms: _353  and  _356
REMARK  133  A    between atoms: _356  and  _357
REMARK  134  A    between atoms: _357  and  _358
REMARK  135  A    between atoms: _360  and  _362
REMARK  136  A    between atoms: _362  and  _363
REMARK  137  A    between atoms: _362  and  _365
REMARK  138  A    between atoms: _365  and  _366
REMARK  139  A    between atoms: _369  and  _371
REMARK  140  A    between atoms: _371  and  _372
REMARK  141  A    between atoms: _371  and  _374
REMARK  142  A    between atoms: _374  and  _375
REMARK  143  A    between atoms: _380  and  _382
REMARK  144  A    between atoms: _382  and  _383
REMARK  145  A    between atoms: _382  and  _385
REMARK  146  A    between atoms: _385  and  _386
REMARK  147  A    between atoms: _386  and  _387
REMARK  148  A    between atoms: _392  and  _394
REMARK  149  A    between atoms: _394  and  _395
REMARK  150  A    between atoms: _394  and  _397
REMARK  151  A    between atoms: _397  and  _398
REMARK  152  A    between atoms: _408  and  _410
REMARK  153  A    between atoms: _410  and  _411
REMARK  154  A    between atoms: _413  and  _415
REMARK  155  A    between atoms: _415  and  _416
REMARK  156  A    between atoms: _415  and  _418
REMARK  157  A    between atoms: _418  and  _419
REMARK                            x       y       z     vdW  Elec       q    Type
REMARK                         _______ _______ _______ _____ _____    ______ ____
ROOT
ATOM      1  O   HOH     1     -15.969  19.950  34.707  0.00  0.00    +0.000 OA
ENDROOT
TORSDOF 0
