REMARK  Name = ../refined-set-2016/1ugx/1ugx_pocket.pdb
REMARK  99 active torsions:
REMARK  status: ('A' for Active; 'I' for Inactive)
REMARK    1  A    between atoms: _1  and  _5
REMARK    2  A    between atoms: _5  and  _6
REMARK    3  A    between atoms: _8  and  _10
REMARK    4  A    between atoms: _10  and  _11
REMARK    5  A    between atoms: _10  and  _13
REMARK    6  A    between atoms: _13  and  _14
REMARK    7  A    between atoms: _14  and  _15
REMARK    8  A    between atoms: _15  and  _16
REMARK    9  A    between atoms: _16  and  _17
REMARK   10  A    between atoms: _21  and  _23
REMARK   11  A    between atoms: _23  and  _24
REMARK   12  A    between atoms: _27  and  _29
REMARK   13  A    between atoms: _29  and  _30
REMARK   14  A    between atoms: _33  and  _35
REMARK   15  A    between atoms: _35  and  _36
REMARK   16  A    between atoms: _35  and  _38
REMARK   17  A    between atoms: _38  and  _39
REMARK   18  A    between atoms: _42  and  _44
REMARK   19  A    between atoms: _44  and  _45
REMARK   20  A    between atoms: _44  and  _47
REMARK   21  A    between atoms: _47  and  _48
REMARK   22  A    between atoms: _50  and  _52
REMARK   23  A    between atoms: _52  and  _53
REMARK   24  A    between atoms: _52  and  _55
REMARK   25  A    between atoms: _55  and  _56
REMARK   26  A    between atoms: _62  and  _64
REMARK   27  A    between atoms: _64  and  _65
REMARK   28  A    between atoms: _64  and  _67
REMARK   29  A    between atoms: _67  and  _68
REMARK   30  A    between atoms: _71  and  _73
REMARK   31  A    between atoms: _73  and  _74
REMARK   32  A    between atoms: _73  and  _76
REMARK   33  A    between atoms: _76  and  _77
REMARK   34  A    between atoms: _82  and  _84
REMARK   35  A    between atoms: _84  and  _85
REMARK   36  A    between atoms: _84  and  _87
REMARK   37  A    between atoms: _90  and  _92
REMARK   38  A    between atoms: _92  and  _93
REMARK   39  A    between atoms: _92  and  _95
REMARK   40  A    between atoms: _95  and  _96
REMARK   41  A    between atoms: _98  and  _100
REMARK   42  A    between atoms: _100  and  _101
REMARK   43  A    between atoms: _103  and  _105
REMARK   44  A    between atoms: _105  and  _106
REMARK   45  A    between atoms: _105  and  _108
REMARK   46  A    between atoms: _108  and  _109
REMARK   47  A    between atoms: _114  and  _115
REMARK   48  A    between atoms: _117  and  _119
REMARK   49  A    between atoms: _119  and  _120
REMARK   50  A    between atoms: _119  and  _122
REMARK   51  A    between atoms: _125  and  _127
REMARK   52  A    between atoms: _127  and  _128
REMARK   53  A    between atoms: _127  and  _130
REMARK   54  A    between atoms: _133  and  _135
REMARK   55  A    between atoms: _135  and  _136
REMARK   56  A    between atoms: _135  and  _138
REMARK   57  A    between atoms: _141  and  _143
REMARK   58  A    between atoms: _143  and  _144
REMARK   59  A    between atoms: _143  and  _146
REMARK   60  A    between atoms: _146  and  _147
REMARK   61  A    between atoms: _149  and  _151
REMARK   62  A    between atoms: _151  and  _152
REMARK   63  A    between atoms: _151  and  _154
REMARK   64  A    between atoms: _154  and  _155
REMARK   65  A    between atoms: _158  and  _160
REMARK   66  A    between atoms: _160  and  _161
REMARK   67  A    between atoms: _163  and  _165
REMARK   68  A    between atoms: _165  and  _166
REMARK   69  A    between atoms: _165  and  _168
REMARK   70  A    between atoms: _168  and  _169
REMARK   71  A    between atoms: _174  and  _175
REMARK   72  A    between atoms: _177  and  _179
REMARK   73  A    between atoms: _179  and  _180
REMARK   74  A    between atoms: _179  and  _182
REMARK   75  A    between atoms: _182  and  _183
REMARK   76  A    between atoms: _193  and  _195
REMARK   77  A    between atoms: _195  and  _196
REMARK   78  A    between atoms: _195  and  _198
REMARK   79  A    between atoms: _198  and  _199
REMARK   80  A    between atoms: _202  and  _204
REMARK   81  A    between atoms: _204  and  _205
REMARK   82  A    between atoms: _204  and  _207
REMARK   83  A    between atoms: _207  and  _208
REMARK   84  A    between atoms: _211  and  _213
REMARK   85  A    between atoms: _213  and  _214
REMARK   86  A    between atoms: _213  and  _216
REMARK   87  A    between atoms: _216  and  _217
REMARK   88  A    between atoms: _222  and  _223
REMARK   89  A    between atoms: _225  and  _227
REMARK   90  A    between atoms: _227  and  _228
REMARK   91  A    between atoms: _230  and  _232
REMARK   92  A    between atoms: _232  and  _233
REMARK   93  A    between atoms: _236  and  _238
REMARK   94  A    between atoms: _238  and  _239
REMARK   95  A    between atoms: _238  and  _241
REMARK   96  A    between atoms: _241  and  _242
REMARK   97  A    between atoms: _242  and  _243
REMARK   98  A    between atoms: _243  and  _244
REMARK   99  A    between atoms: _244  and  _245
REMARK                            x       y       z     vdW  Elec       q    Type
REMARK                         _______ _______ _______ _____ _____    ______ ____
ROOT
ATOM      1  CA  LYS A   2      34.721  30.812  18.364  0.00  0.00    +0.148 C 
ENDROOT
BRANCH   1   4
ATOM      2  C   GLY A   1      35.417  31.883  20.429  0.00  0.00    +0.201 C 
ATOM      3  O   GLY A   1      36.358  32.453  19.872  0.00  0.00    -0.277 OA
ATOM      4  N   LYS A   2      34.582  31.074  19.789  0.00  0.00    -0.300 N 
ATOM      5  H   LYS A   2      33.811  30.617  20.317  0.00  0.00    +0.150 HD
BRANCH   2   6
ATOM      6  CA  GLY A   1      35.160  32.079  21.909  0.00  0.00    +0.001 C 
BRANCH   6   7
ATOM      7  N   GLY A   1      36.134  33.011  22.528  0.00  0.00    +0.386 N 
ATOM      8  H1  GLY A   1      35.918  33.114  23.540  0.00  0.00    -0.089 HD
ATOM      9  H2  GLY A   1      37.096  32.632  22.414  0.00  0.00    -0.089 HD
ATOM     10  H3  GLY A   1      36.068  33.939  22.062  0.00  0.00    -0.089 HD
ENDBRANCH   6   7
ENDBRANCH   2   6
ENDBRANCH   1   4
BRANCH   1  11
ATOM     11  C   LYS A   2      33.857  31.795  17.586  0.00  0.00    +0.241 C 
ATOM     12  O   LYS A   2      32.640  31.805  17.725  0.00  0.00    -0.273 OA
ATOM     13  N   ALA A   3      34.488  32.616  16.757  0.00  0.00    -0.298 N 
ATOM     14  H   ALA A   3      35.522  32.561  16.658  0.00  0.00    +0.150 HD
BRANCH  13  15
ATOM     15  CA  ALA A   3      33.734  33.595  15.984  0.00  0.00    +0.137 C 
ATOM     16  CB  ALA A   3      34.683  34.632  15.399  0.00  0.00    +0.030 C 
BRANCH  15  17
ATOM     17  C   ALA A   3      32.926  32.946  14.872  0.00  0.00    +0.227 C 
ATOM     18  O   ALA A   3      33.303  31.901  14.341  0.00  0.00    -0.286 OA
ENDBRANCH  15  17
ENDBRANCH  13  15
ENDBRANCH   1  11
BRANCH   1  19
ATOM     19  CB  LYS A   2      34.282  29.385  18.046  0.00  0.00    +0.029 C 
BRANCH  19  20
ATOM     20  CG  LYS A   2      34.457  28.990  16.594  0.00  0.00    +0.000 C 
BRANCH  20  21
ATOM     21  CD  LYS A   2      33.977  27.564  16.365  0.00  0.00    -0.024 C 
BRANCH  21  22
ATOM     22  CE  LYS A   2      34.081  27.168  14.903  0.00  0.00    -0.086 C 
BRANCH  22  23
ATOM     23  NZ  LYS A   2      33.613  25.767  14.685  0.00  0.00    +0.380 N 
ATOM     24  HZ1 LYS A   2      34.198  25.116  15.247  0.00  0.00    -0.089 HD
ATOM     25  HZ2 LYS A   2      32.619  25.685  14.980  0.00  0.00    -0.089 HD
ATOM     26  HZ3 LYS A   2      33.697  25.528  13.676  0.00  0.00    -0.089 HD
ENDBRANCH  22  23
ENDBRANCH  21  22
ENDBRANCH  20  21
ENDBRANCH  19  20
ENDBRANCH   1  19
TORSDOF 11
REMARK  Name = ../refined-set-2016/1ugx/1ugx_pocket.pdb
REMARK  99 active torsions:
REMARK  status: ('A' for Active; 'I' for Inactive)
REMARK    1  A    between atoms: _1  and  _5
REMARK    2  A    between atoms: _5  and  _6
REMARK    3  A    between atoms: _8  and  _10
REMARK    4  A    between atoms: _10  and  _11
REMARK    5  A    between atoms: _10  and  _13
REMARK    6  A    between atoms: _13  and  _14
REMARK    7  A    between atoms: _14  and  _15
REMARK    8  A    between atoms: _15  and  _16
REMARK    9  A    between atoms: _16  and  _17
REMARK   10  A    between atoms: _21  and  _23
REMARK   11  A    between atoms: _23  and  _24
REMARK   12  A    between atoms: _27  and  _29
REMARK   13  A    between atoms: _29  and  _30
REMARK   14  A    between atoms: _33  and  _35
REMARK   15  A    between atoms: _35  and  _36
REMARK   16  A    between atoms: _35  and  _38
REMARK   17  A    between atoms: _38  and  _39
REMARK   18  A    between atoms: _42  and  _44
REMARK   19  A    between atoms: _44  and  _45
REMARK   20  A    between atoms: _44  and  _47
REMARK   21  A    between atoms: _47  and  _48
REMARK   22  A    between atoms: _50  and  _52
REMARK   23  A    between atoms: _52  and  _53
REMARK   24  A    between atoms: _52  and  _55
REMARK   25  A    between atoms: _55  and  _56
REMARK   26  A    between atoms: _62  and  _64
REMARK   27  A    between atoms: _64  and  _65
REMARK   28  A    between atoms: _64  and  _67
REMARK   29  A    between atoms: _67  and  _68
REMARK   30  A    between atoms: _71  and  _73
REMARK   31  A    between atoms: _73  and  _74
REMARK   32  A    between atoms: _73  and  _76
REMARK   33  A    between atoms: _76  and  _77
REMARK   34  A    between atoms: _82  and  _84
REMARK   35  A    between atoms: _84  and  _85
REMARK   36  A    between atoms: _84  and  _87
REMARK   37  A    between atoms: _90  and  _92
REMARK   38  A    between atoms: _92  and  _93
REMARK   39  A    between atoms: _92  and  _95
REMARK   40  A    between atoms: _95  and  _96
REMARK   41  A    between atoms: _98  and  _100
REMARK   42  A    between atoms: _100  and  _101
REMARK   43  A    between atoms: _103  and  _105
REMARK   44  A    between atoms: _105  and  _106
REMARK   45  A    between atoms: _105  and  _108
REMARK   46  A    between atoms: _108  and  _109
REMARK   47  A    between atoms: _114  and  _115
REMARK   48  A    between atoms: _117  and  _119
REMARK   49  A    between atoms: _119  and  _120
REMARK   50  A    between atoms: _119  and  _122
REMARK   51  A    between atoms: _125  and  _127
REMARK   52  A    between atoms: _127  and  _128
REMARK   53  A    between atoms: _127  and  _130
REMARK   54  A    between atoms: _133  and  _135
REMARK   55  A    between atoms: _135  and  _136
REMARK   56  A    between atoms: _135  and  _138
REMARK   57  A    between atoms: _141  and  _143
REMARK   58  A    between atoms: _143  and  _144
REMARK   59  A    between atoms: _143  and  _146
REMARK   60  A    between atoms: _146  and  _147
REMARK   61  A    between atoms: _149  and  _151
REMARK   62  A    between atoms: _151  and  _152
REMARK   63  A    between atoms: _151  and  _154
REMARK   64  A    between atoms: _154  and  _155
REMARK   65  A    between atoms: _158  and  _160
REMARK   66  A    between atoms: _160  and  _161
REMARK   67  A    between atoms: _163  and  _165
REMARK   68  A    between atoms: _165  and  _166
REMARK   69  A    between atoms: _165  and  _168
REMARK   70  A    between atoms: _168  and  _169
REMARK   71  A    between atoms: _174  and  _175
REMARK   72  A    between atoms: _177  and  _179
REMARK   73  A    between atoms: _179  and  _180
REMARK   74  A    between atoms: _179  and  _182
REMARK   75  A    between atoms: _182  and  _183
REMARK   76  A    between atoms: _193  and  _195
REMARK   77  A    between atoms: _195  and  _196
REMARK   78  A    between atoms: _195  and  _198
REMARK   79  A    between atoms: _198  and  _199
REMARK   80  A    between atoms: _202  and  _204
REMARK   81  A    between atoms: _204  and  _205
REMARK   82  A    between atoms: _204  and  _207
REMARK   83  A    between atoms: _207  and  _208
REMARK   84  A    between atoms: _211  and  _213
REMARK   85  A    between atoms: _213  and  _214
REMARK   86  A    between atoms: _213  and  _216
REMARK   87  A    between atoms: _216  and  _217
REMARK   88  A    between atoms: _222  and  _223
REMARK   89  A    between atoms: _225  and  _227
REMARK   90  A    between atoms: _227  and  _228
REMARK   91  A    between atoms: _230  and  _232
REMARK   92  A    between atoms: _232  and  _233
REMARK   93  A    between atoms: _236  and  _238
REMARK   94  A    between atoms: _238  and  _239
REMARK   95  A    between atoms: _238  and  _241
REMARK   96  A    between atoms: _241  and  _242
REMARK   97  A    between atoms: _242  and  _243
REMARK   98  A    between atoms: _243  and  _244
REMARK   99  A    between atoms: _244  and  _245
REMARK                            x       y       z     vdW  Elec       q    Type
REMARK                         _______ _______ _______ _____ _____    ______ ____
ROOT
ATOM      1  C   ALA A   1      23.339  32.873  28.733  0.00  0.00    +0.238 C 
ATOM      2  O   ALA A   1      22.907  31.730  28.858  0.00  0.00    -0.274 OA
ATOM      3  N   ILE A   2      23.373  33.514  27.566  0.00  0.00    -0.298 N 
ATOM      4  H   ILE A   2      23.723  34.493  27.541  0.00  0.00    +0.150 HD
ENDROOT
BRANCH   1   5
ATOM      5  CA  ALA A   1      23.859  33.659  29.932  0.00  0.00    +0.145 C 
ATOM      6  CB  ALA A   1      25.168  34.346  29.564  0.00  0.00    +0.028 C 
BRANCH   5   7
ATOM      7  N   ALA A   1      24.075  32.834  31.117  0.00  0.00    -0.238 NA
ATOM      8  H   ALA A   1      24.179  31.804  31.020  0.00  0.00    +0.142 HD
ENDBRANCH   5   7
ENDBRANCH   1   5
BRANCH   3   9
ATOM      9  CA  ILE A   2      22.937  32.891  26.323  0.00  0.00    +0.137 C 
BRANCH   9  10
ATOM     10  C   ILE A   2      23.991  31.887  25.870  0.00  0.00    +0.227 C 
ATOM     11  O   ILE A   2      25.190  32.140  25.985  0.00  0.00    -0.286 OA
ENDBRANCH   9  10
BRANCH   9  12
ATOM     12  CB  ILE A   2      22.756  33.948  25.203  0.00  0.00    +0.026 C 
ATOM     13  CG2 ILE A   2      22.412  33.263  23.876  0.00  0.00    +0.002 C 
BRANCH  12  14
ATOM     14  CG1 ILE A   2      21.681  34.959  25.613  0.00  0.00    +0.002 C 
ATOM     15  CD1 ILE A   2      20.338  34.338  25.921  0.00  0.00    +0.000 C 
ENDBRANCH  12  14
ENDBRANCH   9  12
ENDBRANCH   3   9
TORSDOF 6
REMARK  Name = ../refined-set-2016/1ugx/1ugx_pocket.pdb
REMARK  99 active torsions:
REMARK  status: ('A' for Active; 'I' for Inactive)
REMARK    1  A    between atoms: _1  and  _5
REMARK    2  A    between atoms: _5  and  _6
REMARK    3  A    between atoms: _8  and  _10
REMARK    4  A    between atoms: _10  and  _11
REMARK    5  A    between atoms: _10  and  _13
REMARK    6  A    between atoms: _13  and  _14
REMARK    7  A    between atoms: _14  and  _15
REMARK    8  A    between atoms: _15  and  _16
REMARK    9  A    between atoms: _16  and  _17
REMARK   10  A    between atoms: _21  and  _23
REMARK   11  A    between atoms: _23  and  _24
REMARK   12  A    between atoms: _27  and  _29
REMARK   13  A    between atoms: _29  and  _30
REMARK   14  A    between atoms: _33  and  _35
REMARK   15  A    between atoms: _35  and  _36
REMARK   16  A    between atoms: _35  and  _38
REMARK   17  A    between atoms: _38  and  _39
REMARK   18  A    between atoms: _42  and  _44
REMARK   19  A    between atoms: _44  and  _45
REMARK   20  A    between atoms: _44  and  _47
REMARK   21  A    between atoms: _47  and  _48
REMARK   22  A    between atoms: _50  and  _52
REMARK   23  A    between atoms: _52  and  _53
REMARK   24  A    between atoms: _52  and  _55
REMARK   25  A    between atoms: _55  and  _56
REMARK   26  A    between atoms: _62  and  _64
REMARK   27  A    between atoms: _64  and  _65
REMARK   28  A    between atoms: _64  and  _67
REMARK   29  A    between atoms: _67  and  _68
REMARK   30  A    between atoms: _71  and  _73
REMARK   31  A    between atoms: _73  and  _74
REMARK   32  A    between atoms: _73  and  _76
REMARK   33  A    between atoms: _76  and  _77
REMARK   34  A    between atoms: _82  and  _84
REMARK   35  A    between atoms: _84  and  _85
REMARK   36  A    between atoms: _84  and  _87
REMARK   37  A    between atoms: _90  and  _92
REMARK   38  A    between atoms: _92  and  _93
REMARK   39  A    between atoms: _92  and  _95
REMARK   40  A    between atoms: _95  and  _96
REMARK   41  A    between atoms: _98  and  _100
REMARK   42  A    between atoms: _100  and  _101
REMARK   43  A    between atoms: _103  and  _105
REMARK   44  A    between atoms: _105  and  _106
REMARK   45  A    between atoms: _105  and  _108
REMARK   46  A    between atoms: _108  and  _109
REMARK   47  A    between atoms: _114  and  _115
REMARK   48  A    between atoms: _117  and  _119
REMARK   49  A    between atoms: _119  and  _120
REMARK   50  A    between atoms: _119  and  _122
REMARK   51  A    between atoms: _125  and  _127
REMARK   52  A    between atoms: _127  and  _128
REMARK   53  A    between atoms: _127  and  _130
REMARK   54  A    between atoms: _133  and  _135
REMARK   55  A    between atoms: _135  and  _136
REMARK   56  A    between atoms: _135  and  _138
REMARK   57  A    between atoms: _141  and  _143
REMARK   58  A    between atoms: _143  and  _144
REMARK   59  A    between atoms: _143  and  _146
REMARK   60  A    between atoms: _146  and  _147
REMARK   61  A    between atoms: _149  and  _151
REMARK   62  A    between atoms: _151  and  _152
REMARK   63  A    between atoms: _151  and  _154
REMARK   64  A    between atoms: _154  and  _155
REMARK   65  A    between atoms: _158  and  _160
REMARK   66  A    between atoms: _160  and  _161
REMARK   67  A    between atoms: _163  and  _165
REMARK   68  A    between atoms: _165  and  _166
REMARK   69  A    between atoms: _165  and  _168
REMARK   70  A    between atoms: _168  and  _169
REMARK   71  A    between atoms: _174  and  _175
REMARK   72  A    between atoms: _177  and  _179
REMARK   73  A    between atoms: _179  and  _180
REMARK   74  A    between atoms: _179  and  _182
REMARK   75  A    between atoms: _182  and  _183
REMARK   76  A    between atoms: _193  and  _195
REMARK   77  A    between atoms: _195  and  _196
REMARK   78  A    between atoms: _195  and  _198
REMARK   79  A    between atoms: _198  and  _199
REMARK   80  A    between atoms: _202  and  _204
REMARK   81  A    between atoms: _204  and  _205
REMARK   82  A    between atoms: _204  and  _207
REMARK   83  A    between atoms: _207  and  _208
REMARK   84  A    between atoms: _211  and  _213
REMARK   85  A    between atoms: _213  and  _214
REMARK   86  A    between atoms: _213  and  _216
REMARK   87  A    between atoms: _216  and  _217
REMARK   88  A    between atoms: _222  and  _223
REMARK   89  A    between atoms: _225  and  _227
REMARK   90  A    between atoms: _227  and  _228
REMARK   91  A    between atoms: _230  and  _232
REMARK   92  A    between atoms: _232  and  _233
REMARK   93  A    between atoms: _236  and  _238
REMARK   94  A    between atoms: _238  and  _239
REMARK   95  A    between atoms: _238  and  _241
REMARK   96  A    between atoms: _241  and  _242
REMARK   97  A    between atoms: _242  and  _243
REMARK   98  A    between atoms: _243  and  _244
REMARK   99  A    between atoms: _244  and  _245
REMARK                            x       y       z     vdW  Elec       q    Type
REMARK                         _______ _______ _______ _____ _____    ______ ____
ROOT
ATOM      1  CA  PHE A   2      31.568  24.770  24.324  0.00  0.00    +0.153 C 
ENDROOT
BRANCH   1   3
ATOM      2  C   SER A   1      29.450  25.542  23.407  0.00  0.00    +0.241 C 
ATOM      3  N   PHE A   2      30.572  25.809  24.067  0.00  0.00    -0.297 N 
ATOM      4  H   PHE A   2      30.745  26.776  24.408  0.00  0.00    +0.150 HD
ATOM      5  O   SER A   1      29.196  24.428  22.934  0.00  0.00    -0.274 OA
BRANCH   2   6
ATOM      6  CA  SER A   1      28.467  26.698  23.229  0.00  0.00    +0.174 C 
BRANCH   6   7
ATOM      7  N   SER A   1      27.634  26.407  22.074  0.00  0.00    -0.236 NA
ATOM      8  H   SER A   1      26.623  26.217  22.224  0.00  0.00    +0.142 HD
ENDBRANCH   6   7
BRANCH   6   9
ATOM      9  CB  SER A   1      27.585  26.817  24.476  0.00  0.00    +0.163 C 
BRANCH   9  10
ATOM     10  OG  SER A   1      28.361  26.794  25.659  0.00  0.00    -0.380 OA
ATOM     11  H   SER A   1      28.998  27.552  25.649  0.00  0.00    +0.211 HD
ENDBRANCH   9  10
ENDBRANCH   6   9
ENDBRANCH   2   6
ENDBRANCH   1   3
BRANCH   1  12
ATOM     12  C   PHE A   2      31.051  23.840  25.415  0.00  0.00    +0.241 C 
ATOM     13  N   ILE A   3      30.053  24.301  26.163  0.00  0.00    -0.298 N 
ATOM     14  H   ILE A   3      29.666  25.247  25.972  0.00  0.00    +0.150 HD
ATOM     15  O   PHE A   2      31.560  22.734  25.585  0.00  0.00    -0.273 OA
BRANCH  13  16
ATOM     16  CA  ILE A   3      29.490  23.502  27.249  0.00  0.00    +0.137 C 
BRANCH  16  17
ATOM     17  CB  ILE A   3      29.692  24.202  28.617  0.00  0.00    +0.026 C 
ATOM     18  CG2 ILE A   3      31.182  24.251  28.954  0.00  0.00    +0.002 C 
BRANCH  17  19
ATOM     19  CG1 ILE A   3      29.100  25.613  28.589  0.00  0.00    +0.002 C 
ATOM     20  CD1 ILE A   3      29.100  26.306  29.940  0.00  0.00    +0.000 C 
ENDBRANCH  17  19
ENDBRANCH  16  17
BRANCH  16  21
ATOM     21  C   ILE A   3      28.009  23.205  27.045  0.00  0.00    +0.227 C 
ATOM     22  O   ILE A   3      27.416  23.617  26.047  0.00  0.00    -0.286 OA
ENDBRANCH  16  21
ENDBRANCH  13  16
ENDBRANCH   1  12
BRANCH   1  23
ATOM     23  CB  PHE A   2      32.891  25.369  24.811  0.00  0.00    +0.055 C 
BRANCH  23  24
ATOM     24  CG  PHE A   2      33.569  26.275  23.820  0.00  0.00    -0.020 A 
ATOM     25  CD2 PHE A   2      34.541  27.174  24.253  0.00  0.00    -0.004 A 
ATOM     26  CE2 PHE A   2      35.230  27.979  23.344  0.00  0.00    -0.000 A 
ATOM     27  CZ  PHE A   2      34.942  27.888  21.992  0.00  0.00    -0.000 A 
ATOM     28  CE1 PHE A   2      33.969  26.996  21.547  0.00  0.00    -0.000 A 
ATOM     29  CD1 PHE A   2      33.288  26.195  22.463  0.00  0.00    -0.004 A 
ENDBRANCH  23  24
ENDBRANCH   1  23
TORSDOF 12
REMARK  Name = ../refined-set-2016/1ugx/1ugx_pocket.pdb
REMARK  99 active torsions:
REMARK  status: ('A' for Active; 'I' for Inactive)
REMARK    1  A    between atoms: _1  and  _5
REMARK    2  A    between atoms: _5  and  _6
REMARK    3  A    between atoms: _8  and  _10
REMARK    4  A    between atoms: _10  and  _11
REMARK    5  A    between atoms: _10  and  _13
REMARK    6  A    between atoms: _13  and  _14
REMARK    7  A    between atoms: _14  and  _15
REMARK    8  A    between atoms: _15  and  _16
REMARK    9  A    between atoms: _16  and  _17
REMARK   10  A    between atoms: _21  and  _23
REMARK   11  A    between atoms: _23  and  _24
REMARK   12  A    between atoms: _27  and  _29
REMARK   13  A    between atoms: _29  and  _30
REMARK   14  A    between atoms: _33  and  _35
REMARK   15  A    between atoms: _35  and  _36
REMARK   16  A    between atoms: _35  and  _38
REMARK   17  A    between atoms: _38  and  _39
REMARK   18  A    between atoms: _42  and  _44
REMARK   19  A    between atoms: _44  and  _45
REMARK   20  A    between atoms: _44  and  _47
REMARK   21  A    between atoms: _47  and  _48
REMARK   22  A    between atoms: _50  and  _52
REMARK   23  A    between atoms: _52  and  _53
REMARK   24  A    between atoms: _52  and  _55
REMARK   25  A    between atoms: _55  and  _56
REMARK   26  A    between atoms: _62  and  _64
REMARK   27  A    between atoms: _64  and  _65
REMARK   28  A    between atoms: _64  and  _67
REMARK   29  A    between atoms: _67  and  _68
REMARK   30  A    between atoms: _71  and  _73
REMARK   31  A    between atoms: _73  and  _74
REMARK   32  A    between atoms: _73  and  _76
REMARK   33  A    between atoms: _76  and  _77
REMARK   34  A    between atoms: _82  and  _84
REMARK   35  A    between atoms: _84  and  _85
REMARK   36  A    between atoms: _84  and  _87
REMARK   37  A    between atoms: _90  and  _92
REMARK   38  A    between atoms: _92  and  _93
REMARK   39  A    between atoms: _92  and  _95
REMARK   40  A    between atoms: _95  and  _96
REMARK   41  A    between atoms: _98  and  _100
REMARK   42  A    between atoms: _100  and  _101
REMARK   43  A    between atoms: _103  and  _105
REMARK   44  A    between atoms: _105  and  _106
REMARK   45  A    between atoms: _105  and  _108
REMARK   46  A    between atoms: _108  and  _109
REMARK   47  A    between atoms: _114  and  _115
REMARK   48  A    between atoms: _117  and  _119
REMARK   49  A    between atoms: _119  and  _120
REMARK   50  A    between atoms: _119  and  _122
REMARK   51  A    between atoms: _125  and  _127
REMARK   52  A    between atoms: _127  and  _128
REMARK   53  A    between atoms: _127  and  _130
REMARK   54  A    between atoms: _133  and  _135
REMARK   55  A    between atoms: _135  and  _136
REMARK   56  A    between atoms: _135  and  _138
REMARK   57  A    between atoms: _141  and  _143
REMARK   58  A    between atoms: _143  and  _144
REMARK   59  A    between atoms: _143  and  _146
REMARK   60  A    between atoms: _146  and  _147
REMARK   61  A    between atoms: _149  and  _151
REMARK   62  A    between atoms: _151  and  _152
REMARK   63  A    between atoms: _151  and  _154
REMARK   64  A    between atoms: _154  and  _155
REMARK   65  A    between atoms: _158  and  _160
REMARK   66  A    between atoms: _160  and  _161
REMARK   67  A    between atoms: _163  and  _165
REMARK   68  A    between atoms: _165  and  _166
REMARK   69  A    between atoms: _165  and  _168
REMARK   70  A    between atoms: _168  and  _169
REMARK   71  A    between atoms: _174  and  _175
REMARK   72  A    between atoms: _177  and  _179
REMARK   73  A    between atoms: _179  and  _180
REMARK   74  A    between atoms: _179  and  _182
REMARK   75  A    between atoms: _182  and  _183
REMARK   76  A    between atoms: _193  and  _195
REMARK   77  A    between atoms: _195  and  _196
REMARK   78  A    between atoms: _195  and  _198
REMARK   79  A    between atoms: _198  and  _199
REMARK   80  A    between atoms: _202  and  _204
REMARK   81  A    between atoms: _204  and  _205
REMARK   82  A    between atoms: _204  and  _207
REMARK   83  A    between atoms: _207  and  _208
REMARK   84  A    between atoms: _211  and  _213
REMARK   85  A    between atoms: _213  and  _214
REMARK   86  A    between atoms: _213  and  _216
REMARK   87  A    between atoms: _216  and  _217
REMARK   88  A    between atoms: _222  and  _223
REMARK   89  A    between atoms: _225  and  _227
REMARK   90  A    between atoms: _227  and  _228
REMARK   91  A    between atoms: _230  and  _232
REMARK   92  A    between atoms: _232  and  _233
REMARK   93  A    between atoms: _236  and  _238
REMARK   94  A    between atoms: _238  and  _239
REMARK   95  A    between atoms: _238  and  _241
REMARK   96  A    between atoms: _241  and  _242
REMARK   97  A    between atoms: _242  and  _243
REMARK   98  A    between atoms: _243  and  _244
REMARK   99  A    between atoms: _244  and  _245
REMARK                            x       y       z     vdW  Elec       q    Type
REMARK                         _______ _______ _______ _____ _____    ______ ____
ROOT
ATOM      1  CA  TYR A   5      33.942  37.184  31.005  0.00  0.00    +0.153 C 
ENDROOT
BRANCH   1   4
ATOM      2  C   GLY A   4      35.066  37.292  33.162  0.00  0.00    +0.243 C 
ATOM      3  O   GLY A   4      35.946  38.026  32.715  0.00  0.00    -0.273 OA
ATOM      4  N   TYR A   5      34.062  36.836  32.419  0.00  0.00    -0.297 N 
ATOM      5  H   TYR A   5      33.347  36.218  32.854  0.00  0.00    +0.150 HD
BRANCH   2   6
ATOM      6  CA  GLY A   4      35.099  36.867  34.618  0.00  0.00    +0.176 C 
BRANCH   6   8
ATOM      7  C   SER A   3      34.112  34.688  34.981  0.00  0.00    +0.243 C 
ATOM      8  N   GLY A   4      34.013  36.011  35.065  0.00  0.00    -0.295 N 
ATOM      9  H   GLY A   4      33.149  36.438  35.455  0.00  0.00    +0.150 HD
ATOM     10  O   SER A   3      35.097  34.121  34.507  0.00  0.00    -0.273 OA
BRANCH   7  11
ATOM     11  CA  SER A   3      32.922  33.886  35.502  0.00  0.00    +0.178 C 
BRANCH  11  13
ATOM     12  C   VAL A   2      31.273  35.024  34.112  0.00  0.00    +0.241 C 
ATOM     13  N   SER A   3      31.660  34.591  35.308  0.00  0.00    -0.295 N 
ATOM     14  H   SER A   3      31.045  34.760  36.129  0.00  0.00    +0.150 HD
ATOM     15  O   VAL A   2      31.939  34.863  33.093  0.00  0.00    -0.273 OA
BRANCH  12  16
ATOM     16  CA  VAL A   2      29.942  35.767  34.061  0.00  0.00    +0.148 C 
BRANCH  16  19
ATOM     17  C   ASN A   1      29.740  38.200  34.172  0.00  0.00    +0.239 C 
ATOM     18  O   ASN A   1      28.872  38.161  35.044  0.00  0.00    -0.274 OA
ATOM     19  N   VAL A   2      30.280  37.116  33.629  0.00  0.00    -0.297 N 
ATOM     20  H   VAL A   2      30.973  37.235  32.863  0.00  0.00    +0.150 HD
BRANCH  17  21
ATOM     21  CA  ASN A   1      30.253  39.525  33.628  0.00  0.00    +0.154 C 
BRANCH  21  22
ATOM     22  N   ASN A   1      29.188  40.464  33.315  0.00  0.00    -0.238 NA
ATOM     23  H   ASN A   1      28.900  41.161  34.031  0.00  0.00    +0.142 HD
ENDBRANCH  21  22
BRANCH  21  24
ATOM     24  CB  ASN A   1      31.219  40.140  34.647  0.00  0.00    +0.111 C 
BRANCH  24  25
ATOM     25  CG  ASN A   1      31.964  41.338  34.096  0.00  0.00    +0.221 C 
ATOM     26  ND2 ASN A   1      31.772  42.495  34.723  0.00  0.00    -0.329 N 
ATOM     27 HD21 ASN A   1      31.137  42.542  35.545  0.00  0.00    +0.145 HD
ATOM     28 HD22 ASN A   1      32.257  43.353  34.391  0.00  0.00    +0.145 HD
ATOM     29  OD1 ASN A   1      32.705  41.228  33.119  0.00  0.00    -0.275 OA
ENDBRANCH  24  25
ENDBRANCH  21  24
ENDBRANCH  17  21
ENDBRANCH  16  19
BRANCH  16  30
ATOM     30  CB  VAL A   2      28.991  35.060  33.065  0.00  0.00    +0.027 C 
ATOM     31  CG2 VAL A   2      28.719  33.634  33.527  0.00  0.00    +0.002 C 
ATOM     32  CG1 VAL A   2      27.685  35.834  32.956  0.00  0.00    +0.002 C 
ENDBRANCH  16  30
ENDBRANCH  12  16
ENDBRANCH  11  13
BRANCH  11  33
ATOM     33  CB  SER A   3      32.873  32.518  34.819  0.00  0.00    +0.166 C 
BRANCH  33  34
ATOM     34  OG  SER A   3      31.896  31.695  35.431  0.00  0.00    -0.380 OA
ATOM     35  H   SER A   3      31.877  30.815  34.978  0.00  0.00    +0.211 HD
ENDBRANCH  33  34
ENDBRANCH  11  33
ENDBRANCH   7  11
ENDBRANCH   6   8
ENDBRANCH   2   6
ENDBRANCH   1   4
BRANCH   1  36
ATOM     36  C   TYR A   5      32.721  38.043  30.733  0.00  0.00    +0.241 C 
ATOM     37  O   TYR A   5      31.650  37.802  31.287  0.00  0.00    -0.273 OA
ATOM     38  N   VAL A   6      32.877  39.040  29.870  0.00  0.00    -0.297 N 
ATOM     39  H   VAL A   6      33.812  39.221  29.451  0.00  0.00    +0.150 HD
BRANCH  38  40
ATOM     40  CA  VAL A   6      31.747  39.881  29.507  0.00  0.00    +0.149 C 
BRANCH  40  41
ATOM     41  C   VAL A   6      31.022  39.100  28.413  0.00  0.00    +0.241 C 
ATOM     42  N   VAL A   7      29.739  38.827  28.631  0.00  0.00    -0.297 N 
ATOM     43  H   VAL A   7      29.292  39.159  29.510  0.00  0.00    +0.150 HD
ATOM     44  O   VAL A   6      31.627  38.730  27.409  0.00  0.00    -0.273 OA
BRANCH  42  45
ATOM     45  CA  VAL A   7      28.943  38.074  27.669  0.00  0.00    +0.149 C 
BRANCH  45  46
ATOM     46  C   VAL A   7      27.532  38.643  27.555  0.00  0.00    +0.241 C 
ATOM     47  O   VAL A   7      27.137  39.513  28.323  0.00  0.00    -0.273 OA
ATOM     48  N   VAL A   8      26.775  38.143  26.585  0.00  0.00    -0.298 N 
ATOM     49  H   VAL A   8      27.173  37.425  25.946  0.00  0.00    +0.150 HD
BRANCH  48  50
ATOM     50  CA  VAL A   8      25.396  38.580  26.397  0.00  0.00    +0.137 C 
BRANCH  50  51
ATOM     51  CB  VAL A   8      24.965  38.404  24.927  0.00  0.00    +0.026 C 
ATOM     52  CG2 VAL A   8      23.512  38.819  24.751  0.00  0.00    +0.002 C 
ATOM     53  CG1 VAL A   8      25.871  39.242  24.027  0.00  0.00    +0.002 C 
ENDBRANCH  50  51
BRANCH  50  54
ATOM     54  C   VAL A   8      24.564  37.682  27.306  0.00  0.00    +0.227 C 
ATOM     55  O   VAL A   8      24.437  36.487  27.051  0.00  0.00    -0.286 OA
ENDBRANCH  50  54
ENDBRANCH  48  50
ENDBRANCH  45  46
BRANCH  45  56
ATOM     56  CB  VAL A   7      28.826  36.584  28.084  0.00  0.00    +0.027 C 
ATOM     57  CG2 VAL A   7      28.137  36.474  29.440  0.00  0.00    +0.002 C 
ATOM     58  CG1 VAL A   7      30.201  35.943  28.129  0.00  0.00    +0.002 C 
ENDBRANCH  45  56
ENDBRANCH  42  45
ENDBRANCH  40  41
BRANCH  40  59
ATOM     59  CB  VAL A   6      32.213  41.246  28.961  0.00  0.00    +0.027 C 
ATOM     60  CG2 VAL A   6      32.997  41.987  30.041  0.00  0.00    +0.002 C 
ATOM     61  CG1 VAL A   6      31.010  42.075  28.523  0.00  0.00    +0.002 C 
ENDBRANCH  40  59
ENDBRANCH  38  40
ENDBRANCH   1  36
BRANCH   1  62
ATOM     62  CB  TYR A   5      33.816  35.923  30.152  0.00  0.00    +0.055 C 
BRANCH  62  63
ATOM     63  CG  TYR A   5      34.994  34.994  30.239  0.00  0.00    -0.020 A 
ATOM     64  CD2 TYR A   5      34.931  33.836  31.014  0.00  0.00    -0.001 A 
ATOM     65  CE2 TYR A   5      36.017  32.975  31.104  0.00  0.00    +0.036 A 
ATOM     66  CZ  TYR A   5      37.179  33.270  30.414  0.00  0.00    +0.134 A 
ATOM     67  CE1 TYR A   5      37.267  34.416  29.638  0.00  0.00    +0.036 A 
ATOM     68  CD1 TYR A   5      36.175  35.271  29.556  0.00  0.00    -0.001 A 
BRANCH  66  69
ATOM     69  OH  TYR A   5      38.251  32.413  30.496  0.00  0.00    -0.506 OA
ATOM     70  HH  TYR A   5      38.997  32.766  29.949  0.00  0.00    +0.292 HD
ENDBRANCH  66  69
ENDBRANCH  62  63
ENDBRANCH   1  62
TORSDOF 27
REMARK  Name = ../refined-set-2016/1ugx/1ugx_pocket.pdb
REMARK  99 active torsions:
REMARK  status: ('A' for Active; 'I' for Inactive)
REMARK    1  A    between atoms: _1  and  _5
REMARK    2  A    between atoms: _5  and  _6
REMARK    3  A    between atoms: _8  and  _10
REMARK    4  A    between atoms: _10  and  _11
REMARK    5  A    between atoms: _10  and  _13
REMARK    6  A    between atoms: _13  and  _14
REMARK    7  A    between atoms: _14  and  _15
REMARK    8  A    between atoms: _15  and  _16
REMARK    9  A    between atoms: _16  and  _17
REMARK   10  A    between atoms: _21  and  _23
REMARK   11  A    between atoms: _23  and  _24
REMARK   12  A    between atoms: _27  and  _29
REMARK   13  A    between atoms: _29  and  _30
REMARK   14  A    between atoms: _33  and  _35
REMARK   15  A    between atoms: _35  and  _36
REMARK   16  A    between atoms: _35  and  _38
REMARK   17  A    between atoms: _38  and  _39
REMARK   18  A    between atoms: _42  and  _44
REMARK   19  A    between atoms: _44  and  _45
REMARK   20  A    between atoms: _44  and  _47
REMARK   21  A    between atoms: _47  and  _48
REMARK   22  A    between atoms: _50  and  _52
REMARK   23  A    between atoms: _52  and  _53
REMARK   24  A    between atoms: _52  and  _55
REMARK   25  A    between atoms: _55  and  _56
REMARK   26  A    between atoms: _62  and  _64
REMARK   27  A    between atoms: _64  and  _65
REMARK   28  A    between atoms: _64  and  _67
REMARK   29  A    between atoms: _67  and  _68
REMARK   30  A    between atoms: _71  and  _73
REMARK   31  A    between atoms: _73  and  _74
REMARK   32  A    between atoms: _73  and  _76
REMARK   33  A    between atoms: _76  and  _77
REMARK   34  A    between atoms: _82  and  _84
REMARK   35  A    between atoms: _84  and  _85
REMARK   36  A    between atoms: _84  and  _87
REMARK   37  A    between atoms: _90  and  _92
REMARK   38  A    between atoms: _92  and  _93
REMARK   39  A    between atoms: _92  and  _95
REMARK   40  A    between atoms: _95  and  _96
REMARK   41  A    between atoms: _98  and  _100
REMARK   42  A    between atoms: _100  and  _101
REMARK   43  A    between atoms: _103  and  _105
REMARK   44  A    between atoms: _105  and  _106
REMARK   45  A    between atoms: _105  and  _108
REMARK   46  A    between atoms: _108  and  _109
REMARK   47  A    between atoms: _114  and  _115
REMARK   48  A    between atoms: _117  and  _119
REMARK   49  A    between atoms: _119  and  _120
REMARK   50  A    between atoms: _119  and  _122
REMARK   51  A    between atoms: _125  and  _127
REMARK   52  A    between atoms: _127  and  _128
REMARK   53  A    between atoms: _127  and  _130
REMARK   54  A    between atoms: _133  and  _135
REMARK   55  A    between atoms: _135  and  _136
REMARK   56  A    between atoms: _135  and  _138
REMARK   57  A    between atoms: _141  and  _143
REMARK   58  A    between atoms: _143  and  _144
REMARK   59  A    between atoms: _143  and  _146
REMARK   60  A    between atoms: _146  and  _147
REMARK   61  A    between atoms: _149  and  _151
REMARK   62  A    between atoms: _151  and  _152
REMARK   63  A    between atoms: _151  and  _154
REMARK   64  A    between atoms: _154  and  _155
REMARK   65  A    between atoms: _158  and  _160
REMARK   66  A    between atoms: _160  and  _161
REMARK   67  A    between atoms: _163  and  _165
REMARK   68  A    between atoms: _165  and  _166
REMARK   69  A    between atoms: _165  and  _168
REMARK   70  A    between atoms: _168  and  _169
REMARK   71  A    between atoms: _174  and  _175
REMARK   72  A    between atoms: _177  and  _179
REMARK   73  A    between atoms: _179  and  _180
REMARK   74  A    between atoms: _179  and  _182
REMARK   75  A    between atoms: _182  and  _183
REMARK   76  A    between atoms: _193  and  _195
REMARK   77  A    between atoms: _195  and  _196
REMARK   78  A    between atoms: _195  and  _198
REMARK   79  A    between atoms: _198  and  _199
REMARK   80  A    between atoms: _202  and  _204
REMARK   81  A    between atoms: _204  and  _205
REMARK   82  A    between atoms: _204  and  _207
REMARK   83  A    between atoms: _207  and  _208
REMARK   84  A    between atoms: _211  and  _213
REMARK   85  A    between atoms: _213  and  _214
REMARK   86  A    between atoms: _213  and  _216
REMARK   87  A    between atoms: _216  and  _217
REMARK   88  A    between atoms: _222  and  _223
REMARK   89  A    between atoms: _225  and  _227
REMARK   90  A    between atoms: _227  and  _228
REMARK   91  A    between atoms: _230  and  _232
REMARK   92  A    between atoms: _232  and  _233
REMARK   93  A    between atoms: _236  and  _238
REMARK   94  A    between atoms: _238  and  _239
REMARK   95  A    between atoms: _238  and  _241
REMARK   96  A    between atoms: _241  and  _242
REMARK   97  A    between atoms: _242  and  _243
REMARK   98  A    between atoms: _243  and  _244
REMARK   99  A    between atoms: _244  and  _245
REMARK                            x       y       z     vdW  Elec       q    Type
REMARK                         _______ _______ _______ _____ _____    ______ ____
ROOT
ATOM      1  CA  TRP A   5      28.420  31.784  26.292  0.00  0.00    +0.153 C 
ENDROOT
BRANCH   1   4
ATOM      2  C   TYR A   4      29.580  29.687  26.767  0.00  0.00    +0.241 C 
ATOM      3  O   TYR A   4      28.529  29.050  26.804  0.00  0.00    -0.273 OA
ATOM      4  N   TRP A   5      29.628  30.993  26.508  0.00  0.00    -0.297 N 
ATOM      5  H   TRP A   5      30.554  31.463  26.458  0.00  0.00    +0.150 HD
BRANCH   2   6
ATOM      6  CA  TYR A   4      30.934  29.008  26.986  0.00  0.00    +0.153 C 
BRANCH   6   8
ATOM      7  C   GLY A   3      31.765  29.474  24.771  0.00  0.00    +0.243 C 
ATOM      8  N   TYR A   4      31.815  29.726  26.074  0.00  0.00    -0.297 N 
ATOM      9  H   TYR A   4      32.481  30.434  26.443  0.00  0.00    +0.150 HD
ATOM     10  O   GLY A   3      31.047  28.596  24.293  0.00  0.00    -0.273 OA
BRANCH   7  11
ATOM     11  CA  GLY A   3      32.639  30.321  23.871  0.00  0.00    +0.176 C 
BRANCH  11  13
ATOM     12  C   ILE A   2      31.497  31.098  21.872  0.00  0.00    +0.241 C 
ATOM     13  N   GLY A   3      31.658  31.152  23.189  0.00  0.00    -0.295 N 
ATOM     14  H   GLY A   3      31.069  31.803  23.746  0.00  0.00    +0.150 HD
ATOM     15  O   ILE A   2      32.195  30.409  21.128  0.00  0.00    -0.273 OA
BRANCH  12  16
ATOM     16  CA  ILE A   2      30.395  31.977  21.305  0.00  0.00    +0.148 C 
BRANCH  16  19
ATOM     17  C   SER A   1      30.689  34.055  20.092  0.00  0.00    +0.241 C 
ATOM     18  O   SER A   1      30.012  34.681  20.905  0.00  0.00    -0.274 OA
ATOM     19  N   ILE A   2      30.925  32.752  20.193  0.00  0.00    -0.297 N 
ATOM     20  H   ILE A   2      31.498  32.278  19.466  0.00  0.00    +0.150 HD
BRANCH  17  21
ATOM     21  CA  SER A   1      31.306  34.755  18.895  0.00  0.00    +0.174 C 
BRANCH  21  22
ATOM     22  N   SER A   1      30.367  35.721  18.350  0.00  0.00    -0.236 NA
ATOM     23  H   SER A   1      29.630  36.116  18.969  0.00  0.00    +0.142 HD
ENDBRANCH  21  22
BRANCH  21  24
ATOM     24  CB  SER A   1      32.584  35.465  19.329  0.00  0.00    +0.163 C 
BRANCH  24  25
ATOM     25  OG  SER A   1      33.458  34.585  20.018  0.00  0.00    -0.380 OA
ATOM     26  H   SER A   1      33.003  34.235  20.825  0.00  0.00    +0.211 HD
ENDBRANCH  24  25
ENDBRANCH  21  24
ENDBRANCH  17  21
ENDBRANCH  16  19
BRANCH  16  27
ATOM     27  CB  ILE A   2      29.218  31.066  20.857  0.00  0.00    +0.027 C 
ATOM     28  CG2 ILE A   2      28.682  30.273  22.046  0.00  0.00    +0.002 C 
BRANCH  27  29
ATOM     29  CG1 ILE A   2      28.097  31.918  20.251  0.00  0.00    +0.002 C 
ATOM     30  CD1 ILE A   2      26.919  31.116  19.739  0.00  0.00    +0.000 C 
ENDBRANCH  27  29
ENDBRANCH  16  27
ENDBRANCH  12  16
ENDBRANCH  11  13
ENDBRANCH   7  11
ENDBRANCH   6   8
BRANCH   6  31
ATOM     31  CB  TYR A   4      31.375  29.200  28.440  0.00  0.00    +0.055 C 
BRANCH  31  32
ATOM     32  CG  TYR A   4      32.422  28.216  28.926  0.00  0.00    -0.020 A 
ATOM     33  CD2 TYR A   4      32.677  28.067  30.289  0.00  0.00    -0.001 A 
ATOM     34  CE2 TYR A   4      33.648  27.176  30.749  0.00  0.00    +0.036 A 
ATOM     35  CZ  TYR A   4      34.373  26.428  29.833  0.00  0.00    +0.134 A 
ATOM     36  CE1 TYR A   4      34.139  26.555  28.476  0.00  0.00    +0.036 A 
ATOM     37  CD1 TYR A   4      33.164  27.448  28.026  0.00  0.00    -0.001 A 
BRANCH  35  38
ATOM     38  OH  TYR A   4      35.353  25.566  30.266  0.00  0.00    -0.506 OA
ATOM     39  HH  TYR A   4      36.045  26.075  30.759  0.00  0.00    +0.292 HD
ENDBRANCH  35  38
ENDBRANCH  31  32
ENDBRANCH   6  31
ENDBRANCH   2   6
ENDBRANCH   1   4
BRANCH   1  40
ATOM     40  C   TRP A   5      28.603  32.692  25.082  0.00  0.00    +0.241 C 
ATOM     41  N   LEU A   6      27.525  33.366  24.692  0.00  0.00    -0.297 N 
ATOM     42  H   LEU A   6      26.630  33.226  25.202  0.00  0.00    +0.150 HD
ATOM     43  O   TRP A   5      29.693  32.769  24.518  0.00  0.00    -0.273 OA
BRANCH  41  44
ATOM     44  CA  LEU A   6      27.562  34.297  23.568  0.00  0.00    +0.149 C 
BRANCH  44  45
ATOM     45  C   LEU A   6      28.402  35.491  24.030  0.00  0.00    +0.241 C 
ATOM     46  O   LEU A   6      27.983  36.249  24.909  0.00  0.00    -0.273 OA
ATOM     47  N   ASP A   7      29.589  35.638  23.446  0.00  0.00    -0.297 N 
ATOM     48  H   ASP A   7      29.865  34.970  22.698  0.00  0.00    +0.150 HD
BRANCH  47  49
ATOM     49  CA  ASP A   7      30.523  36.706  23.816  0.00  0.00    +0.160 C 
BRANCH  49  50
ATOM     50  C   ASP A   7      30.042  38.066  23.346  0.00  0.00    +0.241 C 
ATOM     51  O   ASP A   7      30.034  39.040  24.102  0.00  0.00    -0.273 OA
ATOM     52  N   TYR A   8      29.662  38.119  22.079  0.00  0.00    -0.298 N 
ATOM     53  H   TYR A   8      29.713  37.257  21.500  0.00  0.00    +0.150 HD
BRANCH  52  54
ATOM     54  CA  TYR A   8      29.176  39.347  21.475  0.00  0.00    +0.141 C 
BRANCH  54  55
ATOM     55  C   TYR A   8      28.481  39.006  20.168  0.00  0.00    +0.227 C 
ATOM     56  O   TYR A   8      28.607  37.896  19.653  0.00  0.00    -0.286 OA
ENDBRANCH  54  55
BRANCH  54  57
ATOM     57  CB  TYR A   8      30.347  40.312  21.220  0.00  0.00    +0.054 C 
BRANCH  57  58
ATOM     58  CG  TYR A   8      31.473  39.742  20.373  0.00  0.00    -0.020 A 
ATOM     59  CD2 TYR A   8      32.659  39.302  20.964  0.00  0.00    -0.001 A 
ATOM     60  CE2 TYR A   8      33.694  38.769  20.199  0.00  0.00    +0.036 A 
ATOM     61  CZ  TYR A   8      33.551  38.672  18.822  0.00  0.00    +0.134 A 
ATOM     62  CE1 TYR A   8      32.382  39.103  18.207  0.00  0.00    +0.036 A 
ATOM     63  CD1 TYR A   8      31.351  39.635  18.985  0.00  0.00    -0.001 A 
BRANCH  61  64
ATOM     64  OH  TYR A   8      34.576  38.140  18.066  0.00  0.00    -0.506 OA
ATOM     65  HH  TYR A   8      34.316  38.143  17.111  0.00  0.00    +0.292 HD
ENDBRANCH  61  64
ENDBRANCH  57  58
ENDBRANCH  54  57
ENDBRANCH  52  54
ENDBRANCH  49  50
BRANCH  49  66
ATOM     66  CB  ASP A   7      31.902  36.434  23.211  0.00  0.00    +0.143 C 
BRANCH  66  67
ATOM     67  CG  ASP A   7      32.469  35.090  23.629  0.00  0.00    +0.367 C 
ATOM     68  OD2 ASP A   7      32.541  34.834  24.848  0.00  0.00    -0.246 OA
ATOM     69  OD1 ASP A   7      32.841  34.301  22.736  0.00  0.00    -0.246 OA
ENDBRANCH  66  67
ENDBRANCH  49  66
ENDBRANCH  47  49
ENDBRANCH  44  45
BRANCH  44  70
ATOM     70  CB  LEU A   6      26.135  34.729  23.226  0.00  0.00    +0.029 C 
BRANCH  70  71
ATOM     71  CG  LEU A   6      25.980  35.743  22.086  0.00  0.00    +0.002 C 
ATOM     72  CD2 LEU A   6      24.508  36.079  21.915  0.00  0.00    +0.000 C 
ATOM     73  CD1 LEU A   6      26.552  35.176  20.799  0.00  0.00    +0.000 C 
ENDBRANCH  70  71
ENDBRANCH  44  70
ENDBRANCH  41  44
ENDBRANCH   1  40
BRANCH   1  74
ATOM     74  CB  TRP A   5      28.140  32.638  27.532  0.00  0.00    +0.057 C 
BRANCH  74  75
ATOM     75  CG  TRP A   5      28.039  31.806  28.764  0.00  0.00    -0.002 A 
ATOM     76  CD2 TRP A   5      29.028  31.667  29.792  0.00  0.00    +0.013 A 
ATOM     77  CE2 TRP A   5      28.561  30.678  30.687  0.00  0.00    +0.056 A 
ATOM     78  CZ2 TRP A   5      29.291  30.282  31.820  0.00  0.00    +0.017 A 
ATOM     79  CH2 TRP A   5      30.499  30.893  32.042  0.00  0.00    +0.001 A 
ATOM     80  CZ3 TRP A   5      30.995  31.882  31.172  0.00  0.00    +0.000 A 
ATOM     81  NE1 TRP A   5      27.345  30.247  30.226  0.00  0.00    -0.352 N 
ATOM     82  HE1 TRP A   5      26.751  29.521  30.676  0.00  0.00    +0.166 HD
ATOM     83  CE3 TRP A   5      30.266  32.276  30.043  0.00  0.00    +0.001 A 
ATOM     84  CD1 TRP A   5      27.036  30.930  29.072  0.00  0.00    +0.068 A 
ENDBRANCH  74  75
ENDBRANCH   1  74
TORSDOF 32
REMARK  Name = ../refined-set-2016/1ugx/1ugx_pocket.pdb
REMARK  99 active torsions:
REMARK  status: ('A' for Active; 'I' for Inactive)
REMARK    1  A    between atoms: _1  and  _5
REMARK    2  A    between atoms: _5  and  _6
REMARK    3  A    between atoms: _8  and  _10
REMARK    4  A    between atoms: _10  and  _11
REMARK    5  A    between atoms: _10  and  _13
REMARK    6  A    between atoms: _13  and  _14
REMARK    7  A    between atoms: _14  and  _15
REMARK    8  A    between atoms: _15  and  _16
REMARK    9  A    between atoms: _16  and  _17
REMARK   10  A    between atoms: _21  and  _23
REMARK   11  A    between atoms: _23  and  _24
REMARK   12  A    between atoms: _27  and  _29
REMARK   13  A    between atoms: _29  and  _30
REMARK   14  A    between atoms: _33  and  _35
REMARK   15  A    between atoms: _35  and  _36
REMARK   16  A    between atoms: _35  and  _38
REMARK   17  A    between atoms: _38  and  _39
REMARK   18  A    between atoms: _42  and  _44
REMARK   19  A    between atoms: _44  and  _45
REMARK   20  A    between atoms: _44  and  _47
REMARK   21  A    between atoms: _47  and  _48
REMARK   22  A    between atoms: _50  and  _52
REMARK   23  A    between atoms: _52  and  _53
REMARK   24  A    between atoms: _52  and  _55
REMARK   25  A    between atoms: _55  and  _56
REMARK   26  A    between atoms: _62  and  _64
REMARK   27  A    between atoms: _64  and  _65
REMARK   28  A    between atoms: _64  and  _67
REMARK   29  A    between atoms: _67  and  _68
REMARK   30  A    between atoms: _71  and  _73
REMARK   31  A    between atoms: _73  and  _74
REMARK   32  A    between atoms: _73  and  _76
REMARK   33  A    between atoms: _76  and  _77
REMARK   34  A    between atoms: _82  and  _84
REMARK   35  A    between atoms: _84  and  _85
REMARK   36  A    between atoms: _84  and  _87
REMARK   37  A    between atoms: _90  and  _92
REMARK   38  A    between atoms: _92  and  _93
REMARK   39  A    between atoms: _92  and  _95
REMARK   40  A    between atoms: _95  and  _96
REMARK   41  A    between atoms: _98  and  _100
REMARK   42  A    between atoms: _100  and  _101
REMARK   43  A    between atoms: _103  and  _105
REMARK   44  A    between atoms: _105  and  _106
REMARK   45  A    between atoms: _105  and  _108
REMARK   46  A    between atoms: _108  and  _109
REMARK   47  A    between atoms: _114  and  _115
REMARK   48  A    between atoms: _117  and  _119
REMARK   49  A    between atoms: _119  and  _120
REMARK   50  A    between atoms: _119  and  _122
REMARK   51  A    between atoms: _125  and  _127
REMARK   52  A    between atoms: _127  and  _128
REMARK   53  A    between atoms: _127  and  _130
REMARK   54  A    between atoms: _133  and  _135
REMARK   55  A    between atoms: _135  and  _136
REMARK   56  A    between atoms: _135  and  _138
REMARK   57  A    between atoms: _141  and  _143
REMARK   58  A    between atoms: _143  and  _144
REMARK   59  A    between atoms: _143  and  _146
REMARK   60  A    between atoms: _146  and  _147
REMARK   61  A    between atoms: _149  and  _151
REMARK   62  A    between atoms: _151  and  _152
REMARK   63  A    between atoms: _151  and  _154
REMARK   64  A    between atoms: _154  and  _155
REMARK   65  A    between atoms: _158  and  _160
REMARK   66  A    between atoms: _160  and  _161
REMARK   67  A    between atoms: _163  and  _165
REMARK   68  A    between atoms: _165  and  _166
REMARK   69  A    between atoms: _165  and  _168
REMARK   70  A    between atoms: _168  and  _169
REMARK   71  A    between atoms: _174  and  _175
REMARK   72  A    between atoms: _177  and  _179
REMARK   73  A    between atoms: _179  and  _180
REMARK   74  A    between atoms: _179  and  _182
REMARK   75  A    between atoms: _182  and  _183
REMARK   76  A    between atoms: _193  and  _195
REMARK   77  A    between atoms: _195  and  _196
REMARK   78  A    between atoms: _195  and  _198
REMARK   79  A    between atoms: _198  and  _199
REMARK   80  A    between atoms: _202  and  _204
REMARK   81  A    between atoms: _204  and  _205
REMARK   82  A    between atoms: _204  and  _207
REMARK   83  A    between atoms: _207  and  _208
REMARK   84  A    between atoms: _211  and  _213
REMARK   85  A    between atoms: _213  and  _214
REMARK   86  A    between atoms: _213  and  _216
REMARK   87  A    between atoms: _216  and  _217
REMARK   88  A    between atoms: _222  and  _223
REMARK   89  A    between atoms: _225  and  _227
REMARK   90  A    between atoms: _227  and  _228
REMARK   91  A    between atoms: _230  and  _232
REMARK   92  A    between atoms: _232  and  _233
REMARK   93  A    between atoms: _236  and  _238
REMARK   94  A    between atoms: _238  and  _239
REMARK   95  A    between atoms: _238  and  _241
REMARK   96  A    between atoms: _241  and  _242
REMARK   97  A    between atoms: _242  and  _243
REMARK   98  A    between atoms: _243  and  _244
REMARK   99  A    between atoms: _244  and  _245
REMARK                            x       y       z     vdW  Elec       q    Type
REMARK                         _______ _______ _______ _____ _____    ______ ____
ROOT
ATOM      1  C   ALA A   2      33.368  42.452  23.773  0.00  0.00    +0.241 C 
ATOM      2  N   LYS A   3      34.413  43.217  24.074  0.00  0.00    -0.298 N 
ATOM      3  H   LYS A   3      34.759  43.260  25.054  0.00  0.00    +0.150 HD
ATOM      4  O   ALA A   2      32.924  42.367  22.630  0.00  0.00    -0.273 OA
ENDROOT
BRANCH   1   5
ATOM      5  CA  ALA A   2      32.732  41.665  24.913  0.00  0.00    +0.149 C 
ATOM      6  CB  ALA A   2      33.395  40.312  25.028  0.00  0.00    +0.031 C 
BRANCH   5   9
ATOM      7  C   GLY A   1      30.476  42.545  24.734  0.00  0.00    +0.240 C 
ATOM      8  O   GLY A   1      30.874  43.695  24.916  0.00  0.00    -0.274 OA
ATOM      9  N   ALA A   2      31.297  41.500  24.714  0.00  0.00    -0.297 N 
ATOM     10  H   ALA A   2      30.909  40.548  24.554  0.00  0.00    +0.150 HD
BRANCH   7  11
ATOM     11  CA  GLY A   1      28.999  42.279  24.515  0.00  0.00    +0.169 C 
BRANCH  11  12
ATOM     12  N   GLY A   1      28.424  43.362  23.736  0.00  0.00    -0.236 NA
ATOM     13  H   GLY A   1      28.472  44.336  24.096  0.00  0.00    +0.142 HD
ENDBRANCH  11  12
ENDBRANCH   7  11
ENDBRANCH   5   9
ENDBRANCH   1   5
BRANCH   2  14
ATOM     14  CA  LYS A   3      35.076  43.998  23.032  0.00  0.00    +0.137 C 
BRANCH  14  15
ATOM     15  C   LYS A   3      36.370  43.322  22.601  0.00  0.00    +0.227 C 
ATOM     16  O   LYS A   3      36.452  42.826  21.454  0.00  0.00    -0.286 OA
ENDBRANCH  14  15
BRANCH  14  17
ATOM     17  CB  LYS A   3      35.363  45.413  23.541  0.00  0.00    +0.028 C 
BRANCH  17  18
ATOM     18  CG  LYS A   3      34.146  46.328  23.531  0.00  0.00    -0.000 C 
BRANCH  18  19
ATOM     19  CD  LYS A   3      34.565  47.772  23.684  0.00  0.00    -0.024 C 
BRANCH  19  20
ATOM     20  CE  LYS A   3      33.365  48.688  23.590  0.00  0.00    -0.086 C 
BRANCH  20  21
ATOM     21  NZ  LYS A   3      33.788  50.111  23.578  0.00  0.00    +0.380 N 
ATOM     22  HZ1 LYS A   3      34.306  50.325  24.454  0.00  0.00    -0.089 HD
ATOM     23  HZ2 LYS A   3      32.948  50.721  23.513  0.00  0.00    -0.089 HD
ATOM     24  HZ3 LYS A   3      34.405  50.281  22.759  0.00  0.00    -0.089 HD
ENDBRANCH  20  21
ENDBRANCH  19  20
ENDBRANCH  18  19
ENDBRANCH  17  18
ENDBRANCH  14  17
ENDBRANCH   2  14
TORSDOF 11
REMARK  Name = ../refined-set-2016/1ugx/1ugx_pocket.pdb
REMARK  99 active torsions:
REMARK  status: ('A' for Active; 'I' for Inactive)
REMARK    1  A    between atoms: _1  and  _5
REMARK    2  A    between atoms: _5  and  _6
REMARK    3  A    between atoms: _8  and  _10
REMARK    4  A    between atoms: _10  and  _11
REMARK    5  A    between atoms: _10  and  _13
REMARK    6  A    between atoms: _13  and  _14
REMARK    7  A    between atoms: _14  and  _15
REMARK    8  A    between atoms: _15  and  _16
REMARK    9  A    between atoms: _16  and  _17
REMARK   10  A    between atoms: _21  and  _23
REMARK   11  A    between atoms: _23  and  _24
REMARK   12  A    between atoms: _27  and  _29
REMARK   13  A    between atoms: _29  and  _30
REMARK   14  A    between atoms: _33  and  _35
REMARK   15  A    between atoms: _35  and  _36
REMARK   16  A    between atoms: _35  and  _38
REMARK   17  A    between atoms: _38  and  _39
REMARK   18  A    between atoms: _42  and  _44
REMARK   19  A    between atoms: _44  and  _45
REMARK   20  A    between atoms: _44  and  _47
REMARK   21  A    between atoms: _47  and  _48
REMARK   22  A    between atoms: _50  and  _52
REMARK   23  A    between atoms: _52  and  _53
REMARK   24  A    between atoms: _52  and  _55
REMARK   25  A    between atoms: _55  and  _56
REMARK   26  A    between atoms: _62  and  _64
REMARK   27  A    between atoms: _64  and  _65
REMARK   28  A    between atoms: _64  and  _67
REMARK   29  A    between atoms: _67  and  _68
REMARK   30  A    between atoms: _71  and  _73
REMARK   31  A    between atoms: _73  and  _74
REMARK   32  A    between atoms: _73  and  _76
REMARK   33  A    between atoms: _76  and  _77
REMARK   34  A    between atoms: _82  and  _84
REMARK   35  A    between atoms: _84  and  _85
REMARK   36  A    between atoms: _84  and  _87
REMARK   37  A    between atoms: _90  and  _92
REMARK   38  A    between atoms: _92  and  _93
REMARK   39  A    between atoms: _92  and  _95
REMARK   40  A    between atoms: _95  and  _96
REMARK   41  A    between atoms: _98  and  _100
REMARK   42  A    between atoms: _100  and  _101
REMARK   43  A    between atoms: _103  and  _105
REMARK   44  A    between atoms: _105  and  _106
REMARK   45  A    between atoms: _105  and  _108
REMARK   46  A    between atoms: _108  and  _109
REMARK   47  A    between atoms: _114  and  _115
REMARK   48  A    between atoms: _117  and  _119
REMARK   49  A    between atoms: _119  and  _120
REMARK   50  A    between atoms: _119  and  _122
REMARK   51  A    between atoms: _125  and  _127
REMARK   52  A    between atoms: _127  and  _128
REMARK   53  A    between atoms: _127  and  _130
REMARK   54  A    between atoms: _133  and  _135
REMARK   55  A    between atoms: _135  and  _136
REMARK   56  A    between atoms: _135  and  _138
REMARK   57  A    between atoms: _141  and  _143
REMARK   58  A    between atoms: _143  and  _144
REMARK   59  A    between atoms: _143  and  _146
REMARK   60  A    between atoms: _146  and  _147
REMARK   61  A    between atoms: _149  and  _151
REMARK   62  A    between atoms: _151  and  _152
REMARK   63  A    between atoms: _151  and  _154
REMARK   64  A    between atoms: _154  and  _155
REMARK   65  A    between atoms: _158  and  _160
REMARK   66  A    between atoms: _160  and  _161
REMARK   67  A    between atoms: _163  and  _165
REMARK   68  A    between atoms: _165  and  _166
REMARK   69  A    between atoms: _165  and  _168
REMARK   70  A    between atoms: _168  and  _169
REMARK   71  A    between atoms: _174  and  _175
REMARK   72  A    between atoms: _177  and  _179
REMARK   73  A    between atoms: _179  and  _180
REMARK   74  A    between atoms: _179  and  _182
REMARK   75  A    between atoms: _182  and  _183
REMARK   76  A    between atoms: _193  and  _195
REMARK   77  A    between atoms: _195  and  _196
REMARK   78  A    between atoms: _195  and  _198
REMARK   79  A    between atoms: _198  and  _199
REMARK   80  A    between atoms: _202  and  _204
REMARK   81  A    between atoms: _204  and  _205
REMARK   82  A    between atoms: _204  and  _207
REMARK   83  A    between atoms: _207  and  _208
REMARK   84  A    between atoms: _211  and  _213
REMARK   85  A    between atoms: _213  and  _214
REMARK   86  A    between atoms: _213  and  _216
REMARK   87  A    between atoms: _216  and  _217
REMARK   88  A    between atoms: _222  and  _223
REMARK   89  A    between atoms: _225  and  _227
REMARK   90  A    between atoms: _227  and  _228
REMARK   91  A    between atoms: _230  and  _232
REMARK   92  A    between atoms: _232  and  _233
REMARK   93  A    between atoms: _236  and  _238
REMARK   94  A    between atoms: _238  and  _239
REMARK   95  A    between atoms: _238  and  _241
REMARK   96  A    between atoms: _241  and  _242
REMARK   97  A    between atoms: _242  and  _243
REMARK   98  A    between atoms: _243  and  _244
REMARK   99  A    between atoms: _244  and  _245
REMARK                            x       y       z     vdW  Elec       q    Type
REMARK                         _______ _______ _______ _____ _____    ______ ____
ROOT
ATOM      1  O   HOH     1      33.431  36.807  26.550  0.00  0.00    +0.000 OA
ENDROOT
TORSDOF 0
REMARK  Name = ../refined-set-2016/1ugx/1ugx_pocket.pdb
REMARK  99 active torsions:
REMARK  status: ('A' for Active; 'I' for Inactive)
REMARK    1  A    between atoms: _1  and  _5
REMARK    2  A    between atoms: _5  and  _6
REMARK    3  A    between atoms: _8  and  _10
REMARK    4  A    between atoms: _10  and  _11
REMARK    5  A    between atoms: _10  and  _13
REMARK    6  A    between atoms: _13  and  _14
REMARK    7  A    between atoms: _14  and  _15
REMARK    8  A    between atoms: _15  and  _16
REMARK    9  A    between atoms: _16  and  _17
REMARK   10  A    between atoms: _21  and  _23
REMARK   11  A    between atoms: _23  and  _24
REMARK   12  A    between atoms: _27  and  _29
REMARK   13  A    between atoms: _29  and  _30
REMARK   14  A    between atoms: _33  and  _35
REMARK   15  A    between atoms: _35  and  _36
REMARK   16  A    between atoms: _35  and  _38
REMARK   17  A    between atoms: _38  and  _39
REMARK   18  A    between atoms: _42  and  _44
REMARK   19  A    between atoms: _44  and  _45
REMARK   20  A    between atoms: _44  and  _47
REMARK   21  A    between atoms: _47  and  _48
REMARK   22  A    between atoms: _50  and  _52
REMARK   23  A    between atoms: _52  and  _53
REMARK   24  A    between atoms: _52  and  _55
REMARK   25  A    between atoms: _55  and  _56
REMARK   26  A    between atoms: _62  and  _64
REMARK   27  A    between atoms: _64  and  _65
REMARK   28  A    between atoms: _64  and  _67
REMARK   29  A    between atoms: _67  and  _68
REMARK   30  A    between atoms: _71  and  _73
REMARK   31  A    between atoms: _73  and  _74
REMARK   32  A    between atoms: _73  and  _76
REMARK   33  A    between atoms: _76  and  _77
REMARK   34  A    between atoms: _82  and  _84
REMARK   35  A    between atoms: _84  and  _85
REMARK   36  A    between atoms: _84  and  _87
REMARK   37  A    between atoms: _90  and  _92
REMARK   38  A    between atoms: _92  and  _93
REMARK   39  A    between atoms: _92  and  _95
REMARK   40  A    between atoms: _95  and  _96
REMARK   41  A    between atoms: _98  and  _100
REMARK   42  A    between atoms: _100  and  _101
REMARK   43  A    between atoms: _103  and  _105
REMARK   44  A    between atoms: _105  and  _106
REMARK   45  A    between atoms: _105  and  _108
REMARK   46  A    between atoms: _108  and  _109
REMARK   47  A    between atoms: _114  and  _115
REMARK   48  A    between atoms: _117  and  _119
REMARK   49  A    between atoms: _119  and  _120
REMARK   50  A    between atoms: _119  and  _122
REMARK   51  A    between atoms: _125  and  _127
REMARK   52  A    between atoms: _127  and  _128
REMARK   53  A    between atoms: _127  and  _130
REMARK   54  A    between atoms: _133  and  _135
REMARK   55  A    between atoms: _135  and  _136
REMARK   56  A    between atoms: _135  and  _138
REMARK   57  A    between atoms: _141  and  _143
REMARK   58  A    between atoms: _143  and  _144
REMARK   59  A    between atoms: _143  and  _146
REMARK   60  A    between atoms: _146  and  _147
REMARK   61  A    between atoms: _149  and  _151
REMARK   62  A    between atoms: _151  and  _152
REMARK   63  A    between atoms: _151  and  _154
REMARK   64  A    between atoms: _154  and  _155
REMARK   65  A    between atoms: _158  and  _160
REMARK   66  A    between atoms: _160  and  _161
REMARK   67  A    between atoms: _163  and  _165
REMARK   68  A    between atoms: _165  and  _166
REMARK   69  A    between atoms: _165  and  _168
REMARK   70  A    between atoms: _168  and  _169
REMARK   71  A    between atoms: _174  and  _175
REMARK   72  A    between atoms: _177  and  _179
REMARK   73  A    between atoms: _179  and  _180
REMARK   74  A    between atoms: _179  and  _182
REMARK   75  A    between atoms: _182  and  _183
REMARK   76  A    between atoms: _193  and  _195
REMARK   77  A    between atoms: _195  and  _196
REMARK   78  A    between atoms: _195  and  _198
REMARK   79  A    between atoms: _198  and  _199
REMARK   80  A    between atoms: _202  and  _204
REMARK   81  A    between atoms: _204  and  _205
REMARK   82  A    between atoms: _204  and  _207
REMARK   83  A    between atoms: _207  and  _208
REMARK   84  A    between atoms: _211  and  _213
REMARK   85  A    between atoms: _213  and  _214
REMARK   86  A    between atoms: _213  and  _216
REMARK   87  A    between atoms: _216  and  _217
REMARK   88  A    between atoms: _222  and  _223
REMARK   89  A    between atoms: _225  and  _227
REMARK   90  A    between atoms: _227  and  _228
REMARK   91  A    between atoms: _230  and  _232
REMARK   92  A    between atoms: _232  and  _233
REMARK   93  A    between atoms: _236  and  _238
REMARK   94  A    between atoms: _238  and  _239
REMARK   95  A    between atoms: _238  and  _241
REMARK   96  A    between atoms: _241  and  _242
REMARK   97  A    between atoms: _242  and  _243
REMARK   98  A    between atoms: _243  and  _244
REMARK   99  A    between atoms: _244  and  _245
REMARK                            x       y       z     vdW  Elec       q    Type
REMARK                         _______ _______ _______ _____ _____    ______ ____
ROOT
ATOM      1  O   HOH     1      31.228  28.298  19.496  0.00  0.00    +0.000 OA
ENDROOT
TORSDOF 0
REMARK  Name = ../refined-set-2016/1ugx/1ugx_pocket.pdb
REMARK  99 active torsions:
REMARK  status: ('A' for Active; 'I' for Inactive)
REMARK    1  A    between atoms: _1  and  _5
REMARK    2  A    between atoms: _5  and  _6
REMARK    3  A    between atoms: _8  and  _10
REMARK    4  A    between atoms: _10  and  _11
REMARK    5  A    between atoms: _10  and  _13
REMARK    6  A    between atoms: _13  and  _14
REMARK    7  A    between atoms: _14  and  _15
REMARK    8  A    between atoms: _15  and  _16
REMARK    9  A    between atoms: _16  and  _17
REMARK   10  A    between atoms: _21  and  _23
REMARK   11  A    between atoms: _23  and  _24
REMARK   12  A    between atoms: _27  and  _29
REMARK   13  A    between atoms: _29  and  _30
REMARK   14  A    between atoms: _33  and  _35
REMARK   15  A    between atoms: _35  and  _36
REMARK   16  A    between atoms: _35  and  _38
REMARK   17  A    between atoms: _38  and  _39
REMARK   18  A    between atoms: _42  and  _44
REMARK   19  A    between atoms: _44  and  _45
REMARK   20  A    between atoms: _44  and  _47
REMARK   21  A    between atoms: _47  and  _48
REMARK   22  A    between atoms: _50  and  _52
REMARK   23  A    between atoms: _52  and  _53
REMARK   24  A    between atoms: _52  and  _55
REMARK   25  A    between atoms: _55  and  _56
REMARK   26  A    between atoms: _62  and  _64
REMARK   27  A    between atoms: _64  and  _65
REMARK   28  A    between atoms: _64  and  _67
REMARK   29  A    between atoms: _67  and  _68
REMARK   30  A    between atoms: _71  and  _73
REMARK   31  A    between atoms: _73  and  _74
REMARK   32  A    between atoms: _73  and  _76
REMARK   33  A    between atoms: _76  and  _77
REMARK   34  A    between atoms: _82  and  _84
REMARK   35  A    between atoms: _84  and  _85
REMARK   36  A    between atoms: _84  and  _87
REMARK   37  A    between atoms: _90  and  _92
REMARK   38  A    between atoms: _92  and  _93
REMARK   39  A    between atoms: _92  and  _95
REMARK   40  A    between atoms: _95  and  _96
REMARK   41  A    between atoms: _98  and  _100
REMARK   42  A    between atoms: _100  and  _101
REMARK   43  A    between atoms: _103  and  _105
REMARK   44  A    between atoms: _105  and  _106
REMARK   45  A    between atoms: _105  and  _108
REMARK   46  A    between atoms: _108  and  _109
REMARK   47  A    between atoms: _114  and  _115
REMARK   48  A    between atoms: _117  and  _119
REMARK   49  A    between atoms: _119  and  _120
REMARK   50  A    between atoms: _119  and  _122
REMARK   51  A    between atoms: _125  and  _127
REMARK   52  A    between atoms: _127  and  _128
REMARK   53  A    between atoms: _127  and  _130
REMARK   54  A    between atoms: _133  and  _135
REMARK   55  A    between atoms: _135  and  _136
REMARK   56  A    between atoms: _135  and  _138
REMARK   57  A    between atoms: _141  and  _143
REMARK   58  A    between atoms: _143  and  _144
REMARK   59  A    between atoms: _143  and  _146
REMARK   60  A    between atoms: _146  and  _147
REMARK   61  A    between atoms: _149  and  _151
REMARK   62  A    between atoms: _151  and  _152
REMARK   63  A    between atoms: _151  and  _154
REMARK   64  A    between atoms: _154  and  _155
REMARK   65  A    between atoms: _158  and  _160
REMARK   66  A    between atoms: _160  and  _161
REMARK   67  A    between atoms: _163  and  _165
REMARK   68  A    between atoms: _165  and  _166
REMARK   69  A    between atoms: _165  and  _168
REMARK   70  A    between atoms: _168  and  _169
REMARK   71  A    between atoms: _174  and  _175
REMARK   72  A    between atoms: _177  and  _179
REMARK   73  A    between atoms: _179  and  _180
REMARK   74  A    between atoms: _179  and  _182
REMARK   75  A    between atoms: _182  and  _183
REMARK   76  A    between atoms: _193  and  _195
REMARK   77  A    between atoms: _195  and  _196
REMARK   78  A    between atoms: _195  and  _198
REMARK   79  A    between atoms: _198  and  _199
REMARK   80  A    between atoms: _202  and  _204
REMARK   81  A    between atoms: _204  and  _205
REMARK   82  A    between atoms: _204  and  _207
REMARK   83  A    between atoms: _207  and  _208
REMARK   84  A    between atoms: _211  and  _213
REMARK   85  A    between atoms: _213  and  _214
REMARK   86  A    between atoms: _213  and  _216
REMARK   87  A    between atoms: _216  and  _217
REMARK   88  A    between atoms: _222  and  _223
REMARK   89  A    between atoms: _225  and  _227
REMARK   90  A    between atoms: _227  and  _228
REMARK   91  A    between atoms: _230  and  _232
REMARK   92  A    between atoms: _232  and  _233
REMARK   93  A    between atoms: _236  and  _238
REMARK   94  A    between atoms: _238  and  _239
REMARK   95  A    between atoms: _238  and  _241
REMARK   96  A    between atoms: _241  and  _242
REMARK   97  A    between atoms: _242  and  _243
REMARK   98  A    between atoms: _243  and  _244
REMARK   99  A    between atoms: _244  and  _245
REMARK                            x       y       z     vdW  Elec       q    Type
REMARK                         _______ _______ _______ _____ _____    ______ ____
ROOT
ATOM      1  O   HOH     1      37.489  32.072  16.301  0.00  0.00    +0.000 OA
ENDROOT
TORSDOF 0
REMARK  Name = ../refined-set-2016/1ugx/1ugx_pocket.pdb
REMARK  99 active torsions:
REMARK  status: ('A' for Active; 'I' for Inactive)
REMARK    1  A    between atoms: _1  and  _5
REMARK    2  A    between atoms: _5  and  _6
REMARK    3  A    between atoms: _8  and  _10
REMARK    4  A    between atoms: _10  and  _11
REMARK    5  A    between atoms: _10  and  _13
REMARK    6  A    between atoms: _13  and  _14
REMARK    7  A    between atoms: _14  and  _15
REMARK    8  A    between atoms: _15  and  _16
REMARK    9  A    between atoms: _16  and  _17
REMARK   10  A    between atoms: _21  and  _23
REMARK   11  A    between atoms: _23  and  _24
REMARK   12  A    between atoms: _27  and  _29
REMARK   13  A    between atoms: _29  and  _30
REMARK   14  A    between atoms: _33  and  _35
REMARK   15  A    between atoms: _35  and  _36
REMARK   16  A    between atoms: _35  and  _38
REMARK   17  A    between atoms: _38  and  _39
REMARK   18  A    between atoms: _42  and  _44
REMARK   19  A    between atoms: _44  and  _45
REMARK   20  A    between atoms: _44  and  _47
REMARK   21  A    between atoms: _47  and  _48
REMARK   22  A    between atoms: _50  and  _52
REMARK   23  A    between atoms: _52  and  _53
REMARK   24  A    between atoms: _52  and  _55
REMARK   25  A    between atoms: _55  and  _56
REMARK   26  A    between atoms: _62  and  _64
REMARK   27  A    between atoms: _64  and  _65
REMARK   28  A    between atoms: _64  and  _67
REMARK   29  A    between atoms: _67  and  _68
REMARK   30  A    between atoms: _71  and  _73
REMARK   31  A    between atoms: _73  and  _74
REMARK   32  A    between atoms: _73  and  _76
REMARK   33  A    between atoms: _76  and  _77
REMARK   34  A    between atoms: _82  and  _84
REMARK   35  A    between atoms: _84  and  _85
REMARK   36  A    between atoms: _84  and  _87
REMARK   37  A    between atoms: _90  and  _92
REMARK   38  A    between atoms: _92  and  _93
REMARK   39  A    between atoms: _92  and  _95
REMARK   40  A    between atoms: _95  and  _96
REMARK   41  A    between atoms: _98  and  _100
REMARK   42  A    between atoms: _100  and  _101
REMARK   43  A    between atoms: _103  and  _105
REMARK   44  A    between atoms: _105  and  _106
REMARK   45  A    between atoms: _105  and  _108
REMARK   46  A    between atoms: _108  and  _109
REMARK   47  A    between atoms: _114  and  _115
REMARK   48  A    between atoms: _117  and  _119
REMARK   49  A    between atoms: _119  and  _120
REMARK   50  A    between atoms: _119  and  _122
REMARK   51  A    between atoms: _125  and  _127
REMARK   52  A    between atoms: _127  and  _128
REMARK   53  A    between atoms: _127  and  _130
REMARK   54  A    between atoms: _133  and  _135
REMARK   55  A    between atoms: _135  and  _136
REMARK   56  A    between atoms: _135  and  _138
REMARK   57  A    between atoms: _141  and  _143
REMARK   58  A    between atoms: _143  and  _144
REMARK   59  A    between atoms: _143  and  _146
REMARK   60  A    between atoms: _146  and  _147
REMARK   61  A    between atoms: _149  and  _151
REMARK   62  A    between atoms: _151  and  _152
REMARK   63  A    between atoms: _151  and  _154
REMARK   64  A    between atoms: _154  and  _155
REMARK   65  A    between atoms: _158  and  _160
REMARK   66  A    between atoms: _160  and  _161
REMARK   67  A    between atoms: _163  and  _165
REMARK   68  A    between atoms: _165  and  _166
REMARK   69  A    between atoms: _165  and  _168
REMARK   70  A    between atoms: _168  and  _169
REMARK   71  A    between atoms: _174  and  _175
REMARK   72  A    between atoms: _177  and  _179
REMARK   73  A    between atoms: _179  and  _180
REMARK   74  A    between atoms: _179  and  _182
REMARK   75  A    between atoms: _182  and  _183
REMARK   76  A    between atoms: _193  and  _195
REMARK   77  A    between atoms: _195  and  _196
REMARK   78  A    between atoms: _195  and  _198
REMARK   79  A    between atoms: _198  and  _199
REMARK   80  A    between atoms: _202  and  _204
REMARK   81  A    between atoms: _204  and  _205
REMARK   82  A    between atoms: _204  and  _207
REMARK   83  A    between atoms: _207  and  _208
REMARK   84  A    between atoms: _211  and  _213
REMARK   85  A    between atoms: _213  and  _214
REMARK   86  A    between atoms: _213  and  _216
REMARK   87  A    between atoms: _216  and  _217
REMARK   88  A    between atoms: _222  and  _223
REMARK   89  A    between atoms: _225  and  _227
REMARK   90  A    between atoms: _227  and  _228
REMARK   91  A    between atoms: _230  and  _232
REMARK   92  A    between atoms: _232  and  _233
REMARK   93  A    between atoms: _236  and  _238
REMARK   94  A    between atoms: _238  and  _239
REMARK   95  A    between atoms: _238  and  _241
REMARK   96  A    between atoms: _241  and  _242
REMARK   97  A    between atoms: _242  and  _243
REMARK   98  A    between atoms: _243  and  _244
REMARK   99  A    between atoms: _244  and  _245
REMARK                            x       y       z     vdW  Elec       q    Type
REMARK                         _______ _______ _______ _____ _____    ______ ____
ROOT
ATOM      1  O   HOH     1      35.510  39.854  28.543  0.00  0.00    +0.000 OA
ENDROOT
TORSDOF 0
REMARK  Name = ../refined-set-2016/1ugx/1ugx_pocket.pdb
REMARK  99 active torsions:
REMARK  status: ('A' for Active; 'I' for Inactive)
REMARK    1  A    between atoms: _1  and  _5
REMARK    2  A    between atoms: _5  and  _6
REMARK    3  A    between atoms: _8  and  _10
REMARK    4  A    between atoms: _10  and  _11
REMARK    5  A    between atoms: _10  and  _13
REMARK    6  A    between atoms: _13  and  _14
REMARK    7  A    between atoms: _14  and  _15
REMARK    8  A    between atoms: _15  and  _16
REMARK    9  A    between atoms: _16  and  _17
REMARK   10  A    between atoms: _21  and  _23
REMARK   11  A    between atoms: _23  and  _24
REMARK   12  A    between atoms: _27  and  _29
REMARK   13  A    between atoms: _29  and  _30
REMARK   14  A    between atoms: _33  and  _35
REMARK   15  A    between atoms: _35  and  _36
REMARK   16  A    between atoms: _35  and  _38
REMARK   17  A    between atoms: _38  and  _39
REMARK   18  A    between atoms: _42  and  _44
REMARK   19  A    between atoms: _44  and  _45
REMARK   20  A    between atoms: _44  and  _47
REMARK   21  A    between atoms: _47  and  _48
REMARK   22  A    between atoms: _50  and  _52
REMARK   23  A    between atoms: _52  and  _53
REMARK   24  A    between atoms: _52  and  _55
REMARK   25  A    between atoms: _55  and  _56
REMARK   26  A    between atoms: _62  and  _64
REMARK   27  A    between atoms: _64  and  _65
REMARK   28  A    between atoms: _64  and  _67
REMARK   29  A    between atoms: _67  and  _68
REMARK   30  A    between atoms: _71  and  _73
REMARK   31  A    between atoms: _73  and  _74
REMARK   32  A    between atoms: _73  and  _76
REMARK   33  A    between atoms: _76  and  _77
REMARK   34  A    between atoms: _82  and  _84
REMARK   35  A    between atoms: _84  and  _85
REMARK   36  A    between atoms: _84  and  _87
REMARK   37  A    between atoms: _90  and  _92
REMARK   38  A    between atoms: _92  and  _93
REMARK   39  A    between atoms: _92  and  _95
REMARK   40  A    between atoms: _95  and  _96
REMARK   41  A    between atoms: _98  and  _100
REMARK   42  A    between atoms: _100  and  _101
REMARK   43  A    between atoms: _103  and  _105
REMARK   44  A    between atoms: _105  and  _106
REMARK   45  A    between atoms: _105  and  _108
REMARK   46  A    between atoms: _108  and  _109
REMARK   47  A    between atoms: _114  and  _115
REMARK   48  A    between atoms: _117  and  _119
REMARK   49  A    between atoms: _119  and  _120
REMARK   50  A    between atoms: _119  and  _122
REMARK   51  A    between atoms: _125  and  _127
REMARK   52  A    between atoms: _127  and  _128
REMARK   53  A    between atoms: _127  and  _130
REMARK   54  A    between atoms: _133  and  _135
REMARK   55  A    between atoms: _135  and  _136
REMARK   56  A    between atoms: _135  and  _138
REMARK   57  A    between atoms: _141  and  _143
REMARK   58  A    between atoms: _143  and  _144
REMARK   59  A    between atoms: _143  and  _146
REMARK   60  A    between atoms: _146  and  _147
REMARK   61  A    between atoms: _149  and  _151
REMARK   62  A    between atoms: _151  and  _152
REMARK   63  A    between atoms: _151  and  _154
REMARK   64  A    between atoms: _154  and  _155
REMARK   65  A    between atoms: _158  and  _160
REMARK   66  A    between atoms: _160  and  _161
REMARK   67  A    between atoms: _163  and  _165
REMARK   68  A    between atoms: _165  and  _166
REMARK   69  A    between atoms: _165  and  _168
REMARK   70  A    between atoms: _168  and  _169
REMARK   71  A    between atoms: _174  and  _175
REMARK   72  A    between atoms: _177  and  _179
REMARK   73  A    between atoms: _179  and  _180
REMARK   74  A    between atoms: _179  and  _182
REMARK   75  A    between atoms: _182  and  _183
REMARK   76  A    between atoms: _193  and  _195
REMARK   77  A    between atoms: _195  and  _196
REMARK   78  A    between atoms: _195  and  _198
REMARK   79  A    between atoms: _198  and  _199
REMARK   80  A    between atoms: _202  and  _204
REMARK   81  A    between atoms: _204  and  _205
REMARK   82  A    between atoms: _204  and  _207
REMARK   83  A    between atoms: _207  and  _208
REMARK   84  A    between atoms: _211  and  _213
REMARK   85  A    between atoms: _213  and  _214
REMARK   86  A    between atoms: _213  and  _216
REMARK   87  A    between atoms: _216  and  _217
REMARK   88  A    between atoms: _222  and  _223
REMARK   89  A    between atoms: _225  and  _227
REMARK   90  A    between atoms: _227  and  _228
REMARK   91  A    between atoms: _230  and  _232
REMARK   92  A    between atoms: _232  and  _233
REMARK   93  A    between atoms: _236  and  _238
REMARK   94  A    between atoms: _238  and  _239
REMARK   95  A    between atoms: _238  and  _241
REMARK   96  A    between atoms: _241  and  _242
REMARK   97  A    between atoms: _242  and  _243
REMARK   98  A    between atoms: _243  and  _244
REMARK   99  A    between atoms: _244  and  _245
REMARK                            x       y       z     vdW  Elec       q    Type
REMARK                         _______ _______ _______ _____ _____    ______ ____
ROOT
ATOM      1  O   HOH     1      39.588  30.993  28.228  0.00  0.00    +0.000 OA
ENDROOT
TORSDOF 0
REMARK  Name = ../refined-set-2016/1ugx/1ugx_pocket.pdb
REMARK  99 active torsions:
REMARK  status: ('A' for Active; 'I' for Inactive)
REMARK    1  A    between atoms: _1  and  _5
REMARK    2  A    between atoms: _5  and  _6
REMARK    3  A    between atoms: _8  and  _10
REMARK    4  A    between atoms: _10  and  _11
REMARK    5  A    between atoms: _10  and  _13
REMARK    6  A    between atoms: _13  and  _14
REMARK    7  A    between atoms: _14  and  _15
REMARK    8  A    between atoms: _15  and  _16
REMARK    9  A    between atoms: _16  and  _17
REMARK   10  A    between atoms: _21  and  _23
REMARK   11  A    between atoms: _23  and  _24
REMARK   12  A    between atoms: _27  and  _29
REMARK   13  A    between atoms: _29  and  _30
REMARK   14  A    between atoms: _33  and  _35
REMARK   15  A    between atoms: _35  and  _36
REMARK   16  A    between atoms: _35  and  _38
REMARK   17  A    between atoms: _38  and  _39
REMARK   18  A    between atoms: _42  and  _44
REMARK   19  A    between atoms: _44  and  _45
REMARK   20  A    between atoms: _44  and  _47
REMARK   21  A    between atoms: _47  and  _48
REMARK   22  A    between atoms: _50  and  _52
REMARK   23  A    between atoms: _52  and  _53
REMARK   24  A    between atoms: _52  and  _55
REMARK   25  A    between atoms: _55  and  _56
REMARK   26  A    between atoms: _62  and  _64
REMARK   27  A    between atoms: _64  and  _65
REMARK   28  A    between atoms: _64  and  _67
REMARK   29  A    between atoms: _67  and  _68
REMARK   30  A    between atoms: _71  and  _73
REMARK   31  A    between atoms: _73  and  _74
REMARK   32  A    between atoms: _73  and  _76
REMARK   33  A    between atoms: _76  and  _77
REMARK   34  A    between atoms: _82  and  _84
REMARK   35  A    between atoms: _84  and  _85
REMARK   36  A    between atoms: _84  and  _87
REMARK   37  A    between atoms: _90  and  _92
REMARK   38  A    between atoms: _92  and  _93
REMARK   39  A    between atoms: _92  and  _95
REMARK   40  A    between atoms: _95  and  _96
REMARK   41  A    between atoms: _98  and  _100
REMARK   42  A    between atoms: _100  and  _101
REMARK   43  A    between atoms: _103  and  _105
REMARK   44  A    between atoms: _105  and  _106
REMARK   45  A    between atoms: _105  and  _108
REMARK   46  A    between atoms: _108  and  _109
REMARK   47  A    between atoms: _114  and  _115
REMARK   48  A    between atoms: _117  and  _119
REMARK   49  A    between atoms: _119  and  _120
REMARK   50  A    between atoms: _119  and  _122
REMARK   51  A    between atoms: _125  and  _127
REMARK   52  A    between atoms: _127  and  _128
REMARK   53  A    between atoms: _127  and  _130
REMARK   54  A    between atoms: _133  and  _135
REMARK   55  A    between atoms: _135  and  _136
REMARK   56  A    between atoms: _135  and  _138
REMARK   57  A    between atoms: _141  and  _143
REMARK   58  A    between atoms: _143  and  _144
REMARK   59  A    between atoms: _143  and  _146
REMARK   60  A    between atoms: _146  and  _147
REMARK   61  A    between atoms: _149  and  _151
REMARK   62  A    between atoms: _151  and  _152
REMARK   63  A    between atoms: _151  and  _154
REMARK   64  A    between atoms: _154  and  _155
REMARK   65  A    between atoms: _158  and  _160
REMARK   66  A    between atoms: _160  and  _161
REMARK   67  A    between atoms: _163  and  _165
REMARK   68  A    between atoms: _165  and  _166
REMARK   69  A    between atoms: _165  and  _168
REMARK   70  A    between atoms: _168  and  _169
REMARK   71  A    between atoms: _174  and  _175
REMARK   72  A    between atoms: _177  and  _179
REMARK   73  A    between atoms: _179  and  _180
REMARK   74  A    between atoms: _179  and  _182
REMARK   75  A    between atoms: _182  and  _183
REMARK   76  A    between atoms: _193  and  _195
REMARK   77  A    between atoms: _195  and  _196
REMARK   78  A    between atoms: _195  and  _198
REMARK   79  A    between atoms: _198  and  _199
REMARK   80  A    between atoms: _202  and  _204
REMARK   81  A    between atoms: _204  and  _205
REMARK   82  A    between atoms: _204  and  _207
REMARK   83  A    between atoms: _207  and  _208
REMARK   84  A    between atoms: _211  and  _213
REMARK   85  A    between atoms: _213  and  _214
REMARK   86  A    between atoms: _213  and  _216
REMARK   87  A    between atoms: _216  and  _217
REMARK   88  A    between atoms: _222  and  _223
REMARK   89  A    between atoms: _225  and  _227
REMARK   90  A    between atoms: _227  and  _228
REMARK   91  A    between atoms: _230  and  _232
REMARK   92  A    between atoms: _232  and  _233
REMARK   93  A    between atoms: _236  and  _238
REMARK   94  A    between atoms: _238  and  _239
REMARK   95  A    between atoms: _238  and  _241
REMARK   96  A    between atoms: _241  and  _242
REMARK   97  A    between atoms: _242  and  _243
REMARK   98  A    between atoms: _243  and  _244
REMARK   99  A    between atoms: _244  and  _245
REMARK                            x       y       z     vdW  Elec       q    Type
REMARK                         _______ _______ _______ _____ _____    ______ ____
ROOT
ATOM      1  O   HOH     1      36.099  35.461  18.996  0.00  0.00    +0.000 OA
ENDROOT
TORSDOF 0
REMARK  Name = ../refined-set-2016/1ugx/1ugx_pocket.pdb
REMARK  99 active torsions:
REMARK  status: ('A' for Active; 'I' for Inactive)
REMARK    1  A    between atoms: _1  and  _5
REMARK    2  A    between atoms: _5  and  _6
REMARK    3  A    between atoms: _8  and  _10
REMARK    4  A    between atoms: _10  and  _11
REMARK    5  A    between atoms: _10  and  _13
REMARK    6  A    between atoms: _13  and  _14
REMARK    7  A    between atoms: _14  and  _15
REMARK    8  A    between atoms: _15  and  _16
REMARK    9  A    between atoms: _16  and  _17
REMARK   10  A    between atoms: _21  and  _23
REMARK   11  A    between atoms: _23  and  _24
REMARK   12  A    between atoms: _27  and  _29
REMARK   13  A    between atoms: _29  and  _30
REMARK   14  A    between atoms: _33  and  _35
REMARK   15  A    between atoms: _35  and  _36
REMARK   16  A    between atoms: _35  and  _38
REMARK   17  A    between atoms: _38  and  _39
REMARK   18  A    between atoms: _42  and  _44
REMARK   19  A    between atoms: _44  and  _45
REMARK   20  A    between atoms: _44  and  _47
REMARK   21  A    between atoms: _47  and  _48
REMARK   22  A    between atoms: _50  and  _52
REMARK   23  A    between atoms: _52  and  _53
REMARK   24  A    between atoms: _52  and  _55
REMARK   25  A    between atoms: _55  and  _56
REMARK   26  A    between atoms: _62  and  _64
REMARK   27  A    between atoms: _64  and  _65
REMARK   28  A    between atoms: _64  and  _67
REMARK   29  A    between atoms: _67  and  _68
REMARK   30  A    between atoms: _71  and  _73
REMARK   31  A    between atoms: _73  and  _74
REMARK   32  A    between atoms: _73  and  _76
REMARK   33  A    between atoms: _76  and  _77
REMARK   34  A    between atoms: _82  and  _84
REMARK   35  A    between atoms: _84  and  _85
REMARK   36  A    between atoms: _84  and  _87
REMARK   37  A    between atoms: _90  and  _92
REMARK   38  A    between atoms: _92  and  _93
REMARK   39  A    between atoms: _92  and  _95
REMARK   40  A    between atoms: _95  and  _96
REMARK   41  A    between atoms: _98  and  _100
REMARK   42  A    between atoms: _100  and  _101
REMARK   43  A    between atoms: _103  and  _105
REMARK   44  A    between atoms: _105  and  _106
REMARK   45  A    between atoms: _105  and  _108
REMARK   46  A    between atoms: _108  and  _109
REMARK   47  A    between atoms: _114  and  _115
REMARK   48  A    between atoms: _117  and  _119
REMARK   49  A    between atoms: _119  and  _120
REMARK   50  A    between atoms: _119  and  _122
REMARK   51  A    between atoms: _125  and  _127
REMARK   52  A    between atoms: _127  and  _128
REMARK   53  A    between atoms: _127  and  _130
REMARK   54  A    between atoms: _133  and  _135
REMARK   55  A    between atoms: _135  and  _136
REMARK   56  A    between atoms: _135  and  _138
REMARK   57  A    between atoms: _141  and  _143
REMARK   58  A    between atoms: _143  and  _144
REMARK   59  A    between atoms: _143  and  _146
REMARK   60  A    between atoms: _146  and  _147
REMARK   61  A    between atoms: _149  and  _151
REMARK   62  A    between atoms: _151  and  _152
REMARK   63  A    between atoms: _151  and  _154
REMARK   64  A    between atoms: _154  and  _155
REMARK   65  A    between atoms: _158  and  _160
REMARK   66  A    between atoms: _160  and  _161
REMARK   67  A    between atoms: _163  and  _165
REMARK   68  A    between atoms: _165  and  _166
REMARK   69  A    between atoms: _165  and  _168
REMARK   70  A    between atoms: _168  and  _169
REMARK   71  A    between atoms: _174  and  _175
REMARK   72  A    between atoms: _177  and  _179
REMARK   73  A    between atoms: _179  and  _180
REMARK   74  A    between atoms: _179  and  _182
REMARK   75  A    between atoms: _182  and  _183
REMARK   76  A    between atoms: _193  and  _195
REMARK   77  A    between atoms: _195  and  _196
REMARK   78  A    between atoms: _195  and  _198
REMARK   79  A    between atoms: _198  and  _199
REMARK   80  A    between atoms: _202  and  _204
REMARK   81  A    between atoms: _204  and  _205
REMARK   82  A    between atoms: _204  and  _207
REMARK   83  A    between atoms: _207  and  _208
REMARK   84  A    between atoms: _211  and  _213
REMARK   85  A    between atoms: _213  and  _214
REMARK   86  A    between atoms: _213  and  _216
REMARK   87  A    between atoms: _216  and  _217
REMARK   88  A    between atoms: _222  and  _223
REMARK   89  A    between atoms: _225  and  _227
REMARK   90  A    between atoms: _227  and  _228
REMARK   91  A    between atoms: _230  and  _232
REMARK   92  A    between atoms: _232  and  _233
REMARK   93  A    between atoms: _236  and  _238
REMARK   94  A    between atoms: _238  and  _239
REMARK   95  A    between atoms: _238  and  _241
REMARK   96  A    between atoms: _241  and  _242
REMARK   97  A    between atoms: _242  and  _243
REMARK   98  A    between atoms: _243  and  _244
REMARK   99  A    between atoms: _244  and  _245
REMARK                            x       y       z     vdW  Elec       q    Type
REMARK                         _______ _______ _______ _____ _____    ______ ____
ROOT
ATOM      1  O   HOH     1      36.176  35.589  21.684  0.00  0.00    +0.000 OA
ENDROOT
TORSDOF 0
REMARK  Name = ../refined-set-2016/1ugx/1ugx_pocket.pdb
REMARK  99 active torsions:
REMARK  status: ('A' for Active; 'I' for Inactive)
REMARK    1  A    between atoms: _1  and  _5
REMARK    2  A    between atoms: _5  and  _6
REMARK    3  A    between atoms: _8  and  _10
REMARK    4  A    between atoms: _10  and  _11
REMARK    5  A    between atoms: _10  and  _13
REMARK    6  A    between atoms: _13  and  _14
REMARK    7  A    between atoms: _14  and  _15
REMARK    8  A    between atoms: _15  and  _16
REMARK    9  A    between atoms: _16  and  _17
REMARK   10  A    between atoms: _21  and  _23
REMARK   11  A    between atoms: _23  and  _24
REMARK   12  A    between atoms: _27  and  _29
REMARK   13  A    between atoms: _29  and  _30
REMARK   14  A    between atoms: _33  and  _35
REMARK   15  A    between atoms: _35  and  _36
REMARK   16  A    between atoms: _35  and  _38
REMARK   17  A    between atoms: _38  and  _39
REMARK   18  A    between atoms: _42  and  _44
REMARK   19  A    between atoms: _44  and  _45
REMARK   20  A    between atoms: _44  and  _47
REMARK   21  A    between atoms: _47  and  _48
REMARK   22  A    between atoms: _50  and  _52
REMARK   23  A    between atoms: _52  and  _53
REMARK   24  A    between atoms: _52  and  _55
REMARK   25  A    between atoms: _55  and  _56
REMARK   26  A    between atoms: _62  and  _64
REMARK   27  A    between atoms: _64  and  _65
REMARK   28  A    between atoms: _64  and  _67
REMARK   29  A    between atoms: _67  and  _68
REMARK   30  A    between atoms: _71  and  _73
REMARK   31  A    between atoms: _73  and  _74
REMARK   32  A    between atoms: _73  and  _76
REMARK   33  A    between atoms: _76  and  _77
REMARK   34  A    between atoms: _82  and  _84
REMARK   35  A    between atoms: _84  and  _85
REMARK   36  A    between atoms: _84  and  _87
REMARK   37  A    between atoms: _90  and  _92
REMARK   38  A    between atoms: _92  and  _93
REMARK   39  A    between atoms: _92  and  _95
REMARK   40  A    between atoms: _95  and  _96
REMARK   41  A    between atoms: _98  and  _100
REMARK   42  A    between atoms: _100  and  _101
REMARK   43  A    between atoms: _103  and  _105
REMARK   44  A    between atoms: _105  and  _106
REMARK   45  A    between atoms: _105  and  _108
REMARK   46  A    between atoms: _108  and  _109
REMARK   47  A    between atoms: _114  and  _115
REMARK   48  A    between atoms: _117  and  _119
REMARK   49  A    between atoms: _119  and  _120
REMARK   50  A    between atoms: _119  and  _122
REMARK   51  A    between atoms: _125  and  _127
REMARK   52  A    between atoms: _127  and  _128
REMARK   53  A    between atoms: _127  and  _130
REMARK   54  A    between atoms: _133  and  _135
REMARK   55  A    between atoms: _135  and  _136
REMARK   56  A    between atoms: _135  and  _138
REMARK   57  A    between atoms: _141  and  _143
REMARK   58  A    between atoms: _143  and  _144
REMARK   59  A    between atoms: _143  and  _146
REMARK   60  A    between atoms: _146  and  _147
REMARK   61  A    between atoms: _149  and  _151
REMARK   62  A    between atoms: _151  and  _152
REMARK   63  A    between atoms: _151  and  _154
REMARK   64  A    between atoms: _154  and  _155
REMARK   65  A    between atoms: _158  and  _160
REMARK   66  A    between atoms: _160  and  _161
REMARK   67  A    between atoms: _163  and  _165
REMARK   68  A    between atoms: _165  and  _166
REMARK   69  A    between atoms: _165  and  _168
REMARK   70  A    between atoms: _168  and  _169
REMARK   71  A    between atoms: _174  and  _175
REMARK   72  A    between atoms: _177  and  _179
REMARK   73  A    between atoms: _179  and  _180
REMARK   74  A    between atoms: _179  and  _182
REMARK   75  A    between atoms: _182  and  _183
REMARK   76  A    between atoms: _193  and  _195
REMARK   77  A    between atoms: _195  and  _196
REMARK   78  A    between atoms: _195  and  _198
REMARK   79  A    between atoms: _198  and  _199
REMARK   80  A    between atoms: _202  and  _204
REMARK   81  A    between atoms: _204  and  _205
REMARK   82  A    between atoms: _204  and  _207
REMARK   83  A    between atoms: _207  and  _208
REMARK   84  A    between atoms: _211  and  _213
REMARK   85  A    between atoms: _213  and  _214
REMARK   86  A    between atoms: _213  and  _216
REMARK   87  A    between atoms: _216  and  _217
REMARK   88  A    between atoms: _222  and  _223
REMARK   89  A    between atoms: _225  and  _227
REMARK   90  A    between atoms: _227  and  _228
REMARK   91  A    between atoms: _230  and  _232
REMARK   92  A    between atoms: _232  and  _233
REMARK   93  A    between atoms: _236  and  _238
REMARK   94  A    between atoms: _238  and  _239
REMARK   95  A    between atoms: _238  and  _241
REMARK   96  A    between atoms: _241  and  _242
REMARK   97  A    between atoms: _242  and  _243
REMARK   98  A    between atoms: _243  and  _244
REMARK   99  A    between atoms: _244  and  _245
REMARK                            x       y       z     vdW  Elec       q    Type
REMARK                         _______ _______ _______ _____ _____    ______ ____
ROOT
ATOM      1  O   HOH     1      36.422  25.586  32.611  0.00  0.00    +0.000 OA
ENDROOT
TORSDOF 0
REMARK  Name = ../refined-set-2016/1ugx/1ugx_pocket.pdb
REMARK  99 active torsions:
REMARK  status: ('A' for Active; 'I' for Inactive)
REMARK    1  A    between atoms: _1  and  _5
REMARK    2  A    between atoms: _5  and  _6
REMARK    3  A    between atoms: _8  and  _10
REMARK    4  A    between atoms: _10  and  _11
REMARK    5  A    between atoms: _10  and  _13
REMARK    6  A    between atoms: _13  and  _14
REMARK    7  A    between atoms: _14  and  _15
REMARK    8  A    between atoms: _15  and  _16
REMARK    9  A    between atoms: _16  and  _17
REMARK   10  A    between atoms: _21  and  _23
REMARK   11  A    between atoms: _23  and  _24
REMARK   12  A    between atoms: _27  and  _29
REMARK   13  A    between atoms: _29  and  _30
REMARK   14  A    between atoms: _33  and  _35
REMARK   15  A    between atoms: _35  and  _36
REMARK   16  A    between atoms: _35  and  _38
REMARK   17  A    between atoms: _38  and  _39
REMARK   18  A    between atoms: _42  and  _44
REMARK   19  A    between atoms: _44  and  _45
REMARK   20  A    between atoms: _44  and  _47
REMARK   21  A    between atoms: _47  and  _48
REMARK   22  A    between atoms: _50  and  _52
REMARK   23  A    between atoms: _52  and  _53
REMARK   24  A    between atoms: _52  and  _55
REMARK   25  A    between atoms: _55  and  _56
REMARK   26  A    between atoms: _62  and  _64
REMARK   27  A    between atoms: _64  and  _65
REMARK   28  A    between atoms: _64  and  _67
REMARK   29  A    between atoms: _67  and  _68
REMARK   30  A    between atoms: _71  and  _73
REMARK   31  A    between atoms: _73  and  _74
REMARK   32  A    between atoms: _73  and  _76
REMARK   33  A    between atoms: _76  and  _77
REMARK   34  A    between atoms: _82  and  _84
REMARK   35  A    between atoms: _84  and  _85
REMARK   36  A    between atoms: _84  and  _87
REMARK   37  A    between atoms: _90  and  _92
REMARK   38  A    between atoms: _92  and  _93
REMARK   39  A    between atoms: _92  and  _95
REMARK   40  A    between atoms: _95  and  _96
REMARK   41  A    between atoms: _98  and  _100
REMARK   42  A    between atoms: _100  and  _101
REMARK   43  A    between atoms: _103  and  _105
REMARK   44  A    between atoms: _105  and  _106
REMARK   45  A    between atoms: _105  and  _108
REMARK   46  A    between atoms: _108  and  _109
REMARK   47  A    between atoms: _114  and  _115
REMARK   48  A    between atoms: _117  and  _119
REMARK   49  A    between atoms: _119  and  _120
REMARK   50  A    between atoms: _119  and  _122
REMARK   51  A    between atoms: _125  and  _127
REMARK   52  A    between atoms: _127  and  _128
REMARK   53  A    between atoms: _127  and  _130
REMARK   54  A    between atoms: _133  and  _135
REMARK   55  A    between atoms: _135  and  _136
REMARK   56  A    between atoms: _135  and  _138
REMARK   57  A    between atoms: _141  and  _143
REMARK   58  A    between atoms: _143  and  _144
REMARK   59  A    between atoms: _143  and  _146
REMARK   60  A    between atoms: _146  and  _147
REMARK   61  A    between atoms: _149  and  _151
REMARK   62  A    between atoms: _151  and  _152
REMARK   63  A    between atoms: _151  and  _154
REMARK   64  A    between atoms: _154  and  _155
REMARK   65  A    between atoms: _158  and  _160
REMARK   66  A    between atoms: _160  and  _161
REMARK   67  A    between atoms: _163  and  _165
REMARK   68  A    between atoms: _165  and  _166
REMARK   69  A    between atoms: _165  and  _168
REMARK   70  A    between atoms: _168  and  _169
REMARK   71  A    between atoms: _174  and  _175
REMARK   72  A    between atoms: _177  and  _179
REMARK   73  A    between atoms: _179  and  _180
REMARK   74  A    between atoms: _179  and  _182
REMARK   75  A    between atoms: _182  and  _183
REMARK   76  A    between atoms: _193  and  _195
REMARK   77  A    between atoms: _195  and  _196
REMARK   78  A    between atoms: _195  and  _198
REMARK   79  A    between atoms: _198  and  _199
REMARK   80  A    between atoms: _202  and  _204
REMARK   81  A    between atoms: _204  and  _205
REMARK   82  A    between atoms: _204  and  _207
REMARK   83  A    between atoms: _207  and  _208
REMARK   84  A    between atoms: _211  and  _213
REMARK   85  A    between atoms: _213  and  _214
REMARK   86  A    between atoms: _213  and  _216
REMARK   87  A    between atoms: _216  and  _217
REMARK   88  A    between atoms: _222  and  _223
REMARK   89  A    between atoms: _225  and  _227
REMARK   90  A    between atoms: _227  and  _228
REMARK   91  A    between atoms: _230  and  _232
REMARK   92  A    between atoms: _232  and  _233
REMARK   93  A    between atoms: _236  and  _238
REMARK   94  A    between atoms: _238  and  _239
REMARK   95  A    between atoms: _238  and  _241
REMARK   96  A    between atoms: _241  and  _242
REMARK   97  A    between atoms: _242  and  _243
REMARK   98  A    between atoms: _243  and  _244
REMARK   99  A    between atoms: _244  and  _245
REMARK                            x       y       z     vdW  Elec       q    Type
REMARK                         _______ _______ _______ _____ _____    ______ ____
ROOT
ATOM      1  O   HOH     1      35.663  42.337  27.273  0.00  0.00    +0.000 OA
ENDROOT
TORSDOF 0
REMARK  Name = ../refined-set-2016/1ugx/1ugx_pocket.pdb
REMARK  99 active torsions:
REMARK  status: ('A' for Active; 'I' for Inactive)
REMARK    1  A    between atoms: _1  and  _5
REMARK    2  A    between atoms: _5  and  _6
REMARK    3  A    between atoms: _8  and  _10
REMARK    4  A    between atoms: _10  and  _11
REMARK    5  A    between atoms: _10  and  _13
REMARK    6  A    between atoms: _13  and  _14
REMARK    7  A    between atoms: _14  and  _15
REMARK    8  A    between atoms: _15  and  _16
REMARK    9  A    between atoms: _16  and  _17
REMARK   10  A    between atoms: _21  and  _23
REMARK   11  A    between atoms: _23  and  _24
REMARK   12  A    between atoms: _27  and  _29
REMARK   13  A    between atoms: _29  and  _30
REMARK   14  A    between atoms: _33  and  _35
REMARK   15  A    between atoms: _35  and  _36
REMARK   16  A    between atoms: _35  and  _38
REMARK   17  A    between atoms: _38  and  _39
REMARK   18  A    between atoms: _42  and  _44
REMARK   19  A    between atoms: _44  and  _45
REMARK   20  A    between atoms: _44  and  _47
REMARK   21  A    between atoms: _47  and  _48
REMARK   22  A    between atoms: _50  and  _52
REMARK   23  A    between atoms: _52  and  _53
REMARK   24  A    between atoms: _52  and  _55
REMARK   25  A    between atoms: _55  and  _56
REMARK   26  A    between atoms: _62  and  _64
REMARK   27  A    between atoms: _64  and  _65
REMARK   28  A    between atoms: _64  and  _67
REMARK   29  A    between atoms: _67  and  _68
REMARK   30  A    between atoms: _71  and  _73
REMARK   31  A    between atoms: _73  and  _74
REMARK   32  A    between atoms: _73  and  _76
REMARK   33  A    between atoms: _76  and  _77
REMARK   34  A    between atoms: _82  and  _84
REMARK   35  A    between atoms: _84  and  _85
REMARK   36  A    between atoms: _84  and  _87
REMARK   37  A    between atoms: _90  and  _92
REMARK   38  A    between atoms: _92  and  _93
REMARK   39  A    between atoms: _92  and  _95
REMARK   40  A    between atoms: _95  and  _96
REMARK   41  A    between atoms: _98  and  _100
REMARK   42  A    between atoms: _100  and  _101
REMARK   43  A    between atoms: _103  and  _105
REMARK   44  A    between atoms: _105  and  _106
REMARK   45  A    between atoms: _105  and  _108
REMARK   46  A    between atoms: _108  and  _109
REMARK   47  A    between atoms: _114  and  _115
REMARK   48  A    between atoms: _117  and  _119
REMARK   49  A    between atoms: _119  and  _120
REMARK   50  A    between atoms: _119  and  _122
REMARK   51  A    between atoms: _125  and  _127
REMARK   52  A    between atoms: _127  and  _128
REMARK   53  A    between atoms: _127  and  _130
REMARK   54  A    between atoms: _133  and  _135
REMARK   55  A    between atoms: _135  and  _136
REMARK   56  A    between atoms: _135  and  _138
REMARK   57  A    between atoms: _141  and  _143
REMARK   58  A    between atoms: _143  and  _144
REMARK   59  A    between atoms: _143  and  _146
REMARK   60  A    between atoms: _146  and  _147
REMARK   61  A    between atoms: _149  and  _151
REMARK   62  A    between atoms: _151  and  _152
REMARK   63  A    between atoms: _151  and  _154
REMARK   64  A    between atoms: _154  and  _155
REMARK   65  A    between atoms: _158  and  _160
REMARK   66  A    between atoms: _160  and  _161
REMARK   67  A    between atoms: _163  and  _165
REMARK   68  A    between atoms: _165  and  _166
REMARK   69  A    between atoms: _165  and  _168
REMARK   70  A    between atoms: _168  and  _169
REMARK   71  A    between atoms: _174  and  _175
REMARK   72  A    between atoms: _177  and  _179
REMARK   73  A    between atoms: _179  and  _180
REMARK   74  A    between atoms: _179  and  _182
REMARK   75  A    between atoms: _182  and  _183
REMARK   76  A    between atoms: _193  and  _195
REMARK   77  A    between atoms: _195  and  _196
REMARK   78  A    between atoms: _195  and  _198
REMARK   79  A    between atoms: _198  and  _199
REMARK   80  A    between atoms: _202  and  _204
REMARK   81  A    between atoms: _204  and  _205
REMARK   82  A    between atoms: _204  and  _207
REMARK   83  A    between atoms: _207  and  _208
REMARK   84  A    between atoms: _211  and  _213
REMARK   85  A    between atoms: _213  and  _214
REMARK   86  A    between atoms: _213  and  _216
REMARK   87  A    between atoms: _216  and  _217
REMARK   88  A    between atoms: _222  and  _223
REMARK   89  A    between atoms: _225  and  _227
REMARK   90  A    between atoms: _227  and  _228
REMARK   91  A    between atoms: _230  and  _232
REMARK   92  A    between atoms: _232  and  _233
REMARK   93  A    between atoms: _236  and  _238
REMARK   94  A    between atoms: _238  and  _239
REMARK   95  A    between atoms: _238  and  _241
REMARK   96  A    between atoms: _241  and  _242
REMARK   97  A    between atoms: _242  and  _243
REMARK   98  A    between atoms: _243  and  _244
REMARK   99  A    between atoms: _244  and  _245
REMARK                            x       y       z     vdW  Elec       q    Type
REMARK                         _______ _______ _______ _____ _____    ______ ____
ROOT
ATOM      1  O   HOH     1      41.101  32.976  27.368  0.00  0.00    +0.000 OA
ENDROOT
TORSDOF 0
REMARK  Name = ../refined-set-2016/1ugx/1ugx_pocket.pdb
REMARK  99 active torsions:
REMARK  status: ('A' for Active; 'I' for Inactive)
REMARK    1  A    between atoms: _1  and  _5
REMARK    2  A    between atoms: _5  and  _6
REMARK    3  A    between atoms: _8  and  _10
REMARK    4  A    between atoms: _10  and  _11
REMARK    5  A    between atoms: _10  and  _13
REMARK    6  A    between atoms: _13  and  _14
REMARK    7  A    between atoms: _14  and  _15
REMARK    8  A    between atoms: _15  and  _16
REMARK    9  A    between atoms: _16  and  _17
REMARK   10  A    between atoms: _21  and  _23
REMARK   11  A    between atoms: _23  and  _24
REMARK   12  A    between atoms: _27  and  _29
REMARK   13  A    between atoms: _29  and  _30
REMARK   14  A    between atoms: _33  and  _35
REMARK   15  A    between atoms: _35  and  _36
REMARK   16  A    between atoms: _35  and  _38
REMARK   17  A    between atoms: _38  and  _39
REMARK   18  A    between atoms: _42  and  _44
REMARK   19  A    between atoms: _44  and  _45
REMARK   20  A    between atoms: _44  and  _47
REMARK   21  A    between atoms: _47  and  _48
REMARK   22  A    between atoms: _50  and  _52
REMARK   23  A    between atoms: _52  and  _53
REMARK   24  A    between atoms: _52  and  _55
REMARK   25  A    between atoms: _55  and  _56
REMARK   26  A    between atoms: _62  and  _64
REMARK   27  A    between atoms: _64  and  _65
REMARK   28  A    between atoms: _64  and  _67
REMARK   29  A    between atoms: _67  and  _68
REMARK   30  A    between atoms: _71  and  _73
REMARK   31  A    between atoms: _73  and  _74
REMARK   32  A    between atoms: _73  and  _76
REMARK   33  A    between atoms: _76  and  _77
REMARK   34  A    between atoms: _82  and  _84
REMARK   35  A    between atoms: _84  and  _85
REMARK   36  A    between atoms: _84  and  _87
REMARK   37  A    between atoms: _90  and  _92
REMARK   38  A    between atoms: _92  and  _93
REMARK   39  A    between atoms: _92  and  _95
REMARK   40  A    between atoms: _95  and  _96
REMARK   41  A    between atoms: _98  and  _100
REMARK   42  A    between atoms: _100  and  _101
REMARK   43  A    between atoms: _103  and  _105
REMARK   44  A    between atoms: _105  and  _106
REMARK   45  A    between atoms: _105  and  _108
REMARK   46  A    between atoms: _108  and  _109
REMARK   47  A    between atoms: _114  and  _115
REMARK   48  A    between atoms: _117  and  _119
REMARK   49  A    between atoms: _119  and  _120
REMARK   50  A    between atoms: _119  and  _122
REMARK   51  A    between atoms: _125  and  _127
REMARK   52  A    between atoms: _127  and  _128
REMARK   53  A    between atoms: _127  and  _130
REMARK   54  A    between atoms: _133  and  _135
REMARK   55  A    between atoms: _135  and  _136
REMARK   56  A    between atoms: _135  and  _138
REMARK   57  A    between atoms: _141  and  _143
REMARK   58  A    between atoms: _143  and  _144
REMARK   59  A    between atoms: _143  and  _146
REMARK   60  A    between atoms: _146  and  _147
REMARK   61  A    between atoms: _149  and  _151
REMARK   62  A    between atoms: _151  and  _152
REMARK   63  A    between atoms: _151  and  _154
REMARK   64  A    between atoms: _154  and  _155
REMARK   65  A    between atoms: _158  and  _160
REMARK   66  A    between atoms: _160  and  _161
REMARK   67  A    between atoms: _163  and  _165
REMARK   68  A    between atoms: _165  and  _166
REMARK   69  A    between atoms: _165  and  _168
REMARK   70  A    between atoms: _168  and  _169
REMARK   71  A    between atoms: _174  and  _175
REMARK   72  A    between atoms: _177  and  _179
REMARK   73  A    between atoms: _179  and  _180
REMARK   74  A    between atoms: _179  and  _182
REMARK   75  A    between atoms: _182  and  _183
REMARK   76  A    between atoms: _193  and  _195
REMARK   77  A    between atoms: _195  and  _196
REMARK   78  A    between atoms: _195  and  _198
REMARK   79  A    between atoms: _198  and  _199
REMARK   80  A    between atoms: _202  and  _204
REMARK   81  A    between atoms: _204  and  _205
REMARK   82  A    between atoms: _204  and  _207
REMARK   83  A    between atoms: _207  and  _208
REMARK   84  A    between atoms: _211  and  _213
REMARK   85  A    between atoms: _213  and  _214
REMARK   86  A    between atoms: _213  and  _216
REMARK   87  A    between atoms: _216  and  _217
REMARK   88  A    between atoms: _222  and  _223
REMARK   89  A    between atoms: _225  and  _227
REMARK   90  A    between atoms: _227  and  _228
REMARK   91  A    between atoms: _230  and  _232
REMARK   92  A    between atoms: _232  and  _233
REMARK   93  A    between atoms: _236  and  _238
REMARK   94  A    between atoms: _238  and  _239
REMARK   95  A    between atoms: _238  and  _241
REMARK   96  A    between atoms: _241  and  _242
REMARK   97  A    between atoms: _242  and  _243
REMARK   98  A    between atoms: _243  and  _244
REMARK   99  A    between atoms: _244  and  _245
REMARK                            x       y       z     vdW  Elec       q    Type
REMARK                         _______ _______ _______ _____ _____    ______ ____
ROOT
ATOM      1  O   HOH     1      38.336  29.713  20.780  0.00  0.00    +0.000 OA
ENDROOT
TORSDOF 0
REMARK  Name = ../refined-set-2016/1ugx/1ugx_pocket.pdb
REMARK  99 active torsions:
REMARK  status: ('A' for Active; 'I' for Inactive)
REMARK    1  A    between atoms: _1  and  _5
REMARK    2  A    between atoms: _5  and  _6
REMARK    3  A    between atoms: _8  and  _10
REMARK    4  A    between atoms: _10  and  _11
REMARK    5  A    between atoms: _10  and  _13
REMARK    6  A    between atoms: _13  and  _14
REMARK    7  A    between atoms: _14  and  _15
REMARK    8  A    between atoms: _15  and  _16
REMARK    9  A    between atoms: _16  and  _17
REMARK   10  A    between atoms: _21  and  _23
REMARK   11  A    between atoms: _23  and  _24
REMARK   12  A    between atoms: _27  and  _29
REMARK   13  A    between atoms: _29  and  _30
REMARK   14  A    between atoms: _33  and  _35
REMARK   15  A    between atoms: _35  and  _36
REMARK   16  A    between atoms: _35  and  _38
REMARK   17  A    between atoms: _38  and  _39
REMARK   18  A    between atoms: _42  and  _44
REMARK   19  A    between atoms: _44  and  _45
REMARK   20  A    between atoms: _44  and  _47
REMARK   21  A    between atoms: _47  and  _48
REMARK   22  A    between atoms: _50  and  _52
REMARK   23  A    between atoms: _52  and  _53
REMARK   24  A    between atoms: _52  and  _55
REMARK   25  A    between atoms: _55  and  _56
REMARK   26  A    between atoms: _62  and  _64
REMARK   27  A    between atoms: _64  and  _65
REMARK   28  A    between atoms: _64  and  _67
REMARK   29  A    between atoms: _67  and  _68
REMARK   30  A    between atoms: _71  and  _73
REMARK   31  A    between atoms: _73  and  _74
REMARK   32  A    between atoms: _73  and  _76
REMARK   33  A    between atoms: _76  and  _77
REMARK   34  A    between atoms: _82  and  _84
REMARK   35  A    between atoms: _84  and  _85
REMARK   36  A    between atoms: _84  and  _87
REMARK   37  A    between atoms: _90  and  _92
REMARK   38  A    between atoms: _92  and  _93
REMARK   39  A    between atoms: _92  and  _95
REMARK   40  A    between atoms: _95  and  _96
REMARK   41  A    between atoms: _98  and  _100
REMARK   42  A    between atoms: _100  and  _101
REMARK   43  A    between atoms: _103  and  _105
REMARK   44  A    between atoms: _105  and  _106
REMARK   45  A    between atoms: _105  and  _108
REMARK   46  A    between atoms: _108  and  _109
REMARK   47  A    between atoms: _114  and  _115
REMARK   48  A    between atoms: _117  and  _119
REMARK   49  A    between atoms: _119  and  _120
REMARK   50  A    between atoms: _119  and  _122
REMARK   51  A    between atoms: _125  and  _127
REMARK   52  A    between atoms: _127  and  _128
REMARK   53  A    between atoms: _127  and  _130
REMARK   54  A    between atoms: _133  and  _135
REMARK   55  A    between atoms: _135  and  _136
REMARK   56  A    between atoms: _135  and  _138
REMARK   57  A    between atoms: _141  and  _143
REMARK   58  A    between atoms: _143  and  _144
REMARK   59  A    between atoms: _143  and  _146
REMARK   60  A    between atoms: _146  and  _147
REMARK   61  A    between atoms: _149  and  _151
REMARK   62  A    between atoms: _151  and  _152
REMARK   63  A    between atoms: _151  and  _154
REMARK   64  A    between atoms: _154  and  _155
REMARK   65  A    between atoms: _158  and  _160
REMARK   66  A    between atoms: _160  and  _161
REMARK   67  A    between atoms: _163  and  _165
REMARK   68  A    between atoms: _165  and  _166
REMARK   69  A    between atoms: _165  and  _168
REMARK   70  A    between atoms: _168  and  _169
REMARK   71  A    between atoms: _174  and  _175
REMARK   72  A    between atoms: _177  and  _179
REMARK   73  A    between atoms: _179  and  _180
REMARK   74  A    between atoms: _179  and  _182
REMARK   75  A    between atoms: _182  and  _183
REMARK   76  A    between atoms: _193  and  _195
REMARK   77  A    between atoms: _195  and  _196
REMARK   78  A    between atoms: _195  and  _198
REMARK   79  A    between atoms: _198  and  _199
REMARK   80  A    between atoms: _202  and  _204
REMARK   81  A    between atoms: _204  and  _205
REMARK   82  A    between atoms: _204  and  _207
REMARK   83  A    between atoms: _207  and  _208
REMARK   84  A    between atoms: _211  and  _213
REMARK   85  A    between atoms: _213  and  _214
REMARK   86  A    between atoms: _213  and  _216
REMARK   87  A    between atoms: _216  and  _217
REMARK   88  A    between atoms: _222  and  _223
REMARK   89  A    between atoms: _225  and  _227
REMARK   90  A    between atoms: _227  and  _228
REMARK   91  A    between atoms: _230  and  _232
REMARK   92  A    between atoms: _232  and  _233
REMARK   93  A    between atoms: _236  and  _238
REMARK   94  A    between atoms: _238  and  _239
REMARK   95  A    between atoms: _238  and  _241
REMARK   96  A    between atoms: _241  and  _242
REMARK   97  A    between atoms: _242  and  _243
REMARK   98  A    between atoms: _243  and  _244
REMARK   99  A    between atoms: _244  and  _245
REMARK                            x       y       z     vdW  Elec       q    Type
REMARK                         _______ _______ _______ _____ _____    ______ ____
ROOT
ATOM      1  O   HOH     1      39.260  32.519  21.895  0.00  0.00    +0.000 OA
ENDROOT
TORSDOF 0
REMARK  Name = ../refined-set-2016/1ugx/1ugx_pocket.pdb
REMARK  99 active torsions:
REMARK  status: ('A' for Active; 'I' for Inactive)
REMARK    1  A    between atoms: _1  and  _5
REMARK    2  A    between atoms: _5  and  _6
REMARK    3  A    between atoms: _8  and  _10
REMARK    4  A    between atoms: _10  and  _11
REMARK    5  A    between atoms: _10  and  _13
REMARK    6  A    between atoms: _13  and  _14
REMARK    7  A    between atoms: _14  and  _15
REMARK    8  A    between atoms: _15  and  _16
REMARK    9  A    between atoms: _16  and  _17
REMARK   10  A    between atoms: _21  and  _23
REMARK   11  A    between atoms: _23  and  _24
REMARK   12  A    between atoms: _27  and  _29
REMARK   13  A    between atoms: _29  and  _30
REMARK   14  A    between atoms: _33  and  _35
REMARK   15  A    between atoms: _35  and  _36
REMARK   16  A    between atoms: _35  and  _38
REMARK   17  A    between atoms: _38  and  _39
REMARK   18  A    between atoms: _42  and  _44
REMARK   19  A    between atoms: _44  and  _45
REMARK   20  A    between atoms: _44  and  _47
REMARK   21  A    between atoms: _47  and  _48
REMARK   22  A    between atoms: _50  and  _52
REMARK   23  A    between atoms: _52  and  _53
REMARK   24  A    between atoms: _52  and  _55
REMARK   25  A    between atoms: _55  and  _56
REMARK   26  A    between atoms: _62  and  _64
REMARK   27  A    between atoms: _64  and  _65
REMARK   28  A    between atoms: _64  and  _67
REMARK   29  A    between atoms: _67  and  _68
REMARK   30  A    between atoms: _71  and  _73
REMARK   31  A    between atoms: _73  and  _74
REMARK   32  A    between atoms: _73  and  _76
REMARK   33  A    between atoms: _76  and  _77
REMARK   34  A    between atoms: _82  and  _84
REMARK   35  A    between atoms: _84  and  _85
REMARK   36  A    between atoms: _84  and  _87
REMARK   37  A    between atoms: _90  and  _92
REMARK   38  A    between atoms: _92  and  _93
REMARK   39  A    between atoms: _92  and  _95
REMARK   40  A    between atoms: _95  and  _96
REMARK   41  A    between atoms: _98  and  _100
REMARK   42  A    between atoms: _100  and  _101
REMARK   43  A    between atoms: _103  and  _105
REMARK   44  A    between atoms: _105  and  _106
REMARK   45  A    between atoms: _105  and  _108
REMARK   46  A    between atoms: _108  and  _109
REMARK   47  A    between atoms: _114  and  _115
REMARK   48  A    between atoms: _117  and  _119
REMARK   49  A    between atoms: _119  and  _120
REMARK   50  A    between atoms: _119  and  _122
REMARK   51  A    between atoms: _125  and  _127
REMARK   52  A    between atoms: _127  and  _128
REMARK   53  A    between atoms: _127  and  _130
REMARK   54  A    between atoms: _133  and  _135
REMARK   55  A    between atoms: _135  and  _136
REMARK   56  A    between atoms: _135  and  _138
REMARK   57  A    between atoms: _141  and  _143
REMARK   58  A    between atoms: _143  and  _144
REMARK   59  A    between atoms: _143  and  _146
REMARK   60  A    between atoms: _146  and  _147
REMARK   61  A    between atoms: _149  and  _151
REMARK   62  A    between atoms: _151  and  _152
REMARK   63  A    between atoms: _151  and  _154
REMARK   64  A    between atoms: _154  and  _155
REMARK   65  A    between atoms: _158  and  _160
REMARK   66  A    between atoms: _160  and  _161
REMARK   67  A    between atoms: _163  and  _165
REMARK   68  A    between atoms: _165  and  _166
REMARK   69  A    between atoms: _165  and  _168
REMARK   70  A    between atoms: _168  and  _169
REMARK   71  A    between atoms: _174  and  _175
REMARK   72  A    between atoms: _177  and  _179
REMARK   73  A    between atoms: _179  and  _180
REMARK   74  A    between atoms: _179  and  _182
REMARK   75  A    between atoms: _182  and  _183
REMARK   76  A    between atoms: _193  and  _195
REMARK   77  A    between atoms: _195  and  _196
REMARK   78  A    between atoms: _195  and  _198
REMARK   79  A    between atoms: _198  and  _199
REMARK   80  A    between atoms: _202  and  _204
REMARK   81  A    between atoms: _204  and  _205
REMARK   82  A    between atoms: _204  and  _207
REMARK   83  A    between atoms: _207  and  _208
REMARK   84  A    between atoms: _211  and  _213
REMARK   85  A    between atoms: _213  and  _214
REMARK   86  A    between atoms: _213  and  _216
REMARK   87  A    between atoms: _216  and  _217
REMARK   88  A    between atoms: _222  and  _223
REMARK   89  A    between atoms: _225  and  _227
REMARK   90  A    between atoms: _227  and  _228
REMARK   91  A    between atoms: _230  and  _232
REMARK   92  A    between atoms: _232  and  _233
REMARK   93  A    between atoms: _236  and  _238
REMARK   94  A    between atoms: _238  and  _239
REMARK   95  A    between atoms: _238  and  _241
REMARK   96  A    between atoms: _241  and  _242
REMARK   97  A    between atoms: _242  and  _243
REMARK   98  A    between atoms: _243  and  _244
REMARK   99  A    between atoms: _244  and  _245
REMARK                            x       y       z     vdW  Elec       q    Type
REMARK                         _______ _______ _______ _____ _____    ______ ____
ROOT
ATOM      1  O   HOH     1      37.450  39.367  30.567  0.00  0.00    +0.000 OA
ENDROOT
TORSDOF 0
REMARK  Name = ../refined-set-2016/1ugx/1ugx_pocket.pdb
REMARK  99 active torsions:
REMARK  status: ('A' for Active; 'I' for Inactive)
REMARK    1  A    between atoms: _1  and  _5
REMARK    2  A    between atoms: _5  and  _6
REMARK    3  A    between atoms: _8  and  _10
REMARK    4  A    between atoms: _10  and  _11
REMARK    5  A    between atoms: _10  and  _13
REMARK    6  A    between atoms: _13  and  _14
REMARK    7  A    between atoms: _14  and  _15
REMARK    8  A    between atoms: _15  and  _16
REMARK    9  A    between atoms: _16  and  _17
REMARK   10  A    between atoms: _21  and  _23
REMARK   11  A    between atoms: _23  and  _24
REMARK   12  A    between atoms: _27  and  _29
REMARK   13  A    between atoms: _29  and  _30
REMARK   14  A    between atoms: _33  and  _35
REMARK   15  A    between atoms: _35  and  _36
REMARK   16  A    between atoms: _35  and  _38
REMARK   17  A    between atoms: _38  and  _39
REMARK   18  A    between atoms: _42  and  _44
REMARK   19  A    between atoms: _44  and  _45
REMARK   20  A    between atoms: _44  and  _47
REMARK   21  A    between atoms: _47  and  _48
REMARK   22  A    between atoms: _50  and  _52
REMARK   23  A    between atoms: _52  and  _53
REMARK   24  A    between atoms: _52  and  _55
REMARK   25  A    between atoms: _55  and  _56
REMARK   26  A    between atoms: _62  and  _64
REMARK   27  A    between atoms: _64  and  _65
REMARK   28  A    between atoms: _64  and  _67
REMARK   29  A    between atoms: _67  and  _68
REMARK   30  A    between atoms: _71  and  _73
REMARK   31  A    between atoms: _73  and  _74
REMARK   32  A    between atoms: _73  and  _76
REMARK   33  A    between atoms: _76  and  _77
REMARK   34  A    between atoms: _82  and  _84
REMARK   35  A    between atoms: _84  and  _85
REMARK   36  A    between atoms: _84  and  _87
REMARK   37  A    between atoms: _90  and  _92
REMARK   38  A    between atoms: _92  and  _93
REMARK   39  A    between atoms: _92  and  _95
REMARK   40  A    between atoms: _95  and  _96
REMARK   41  A    between atoms: _98  and  _100
REMARK   42  A    between atoms: _100  and  _101
REMARK   43  A    between atoms: _103  and  _105
REMARK   44  A    between atoms: _105  and  _106
REMARK   45  A    between atoms: _105  and  _108
REMARK   46  A    between atoms: _108  and  _109
REMARK   47  A    between atoms: _114  and  _115
REMARK   48  A    between atoms: _117  and  _119
REMARK   49  A    between atoms: _119  and  _120
REMARK   50  A    between atoms: _119  and  _122
REMARK   51  A    between atoms: _125  and  _127
REMARK   52  A    between atoms: _127  and  _128
REMARK   53  A    between atoms: _127  and  _130
REMARK   54  A    between atoms: _133  and  _135
REMARK   55  A    between atoms: _135  and  _136
REMARK   56  A    between atoms: _135  and  _138
REMARK   57  A    between atoms: _141  and  _143
REMARK   58  A    between atoms: _143  and  _144
REMARK   59  A    between atoms: _143  and  _146
REMARK   60  A    between atoms: _146  and  _147
REMARK   61  A    between atoms: _149  and  _151
REMARK   62  A    between atoms: _151  and  _152
REMARK   63  A    between atoms: _151  and  _154
REMARK   64  A    between atoms: _154  and  _155
REMARK   65  A    between atoms: _158  and  _160
REMARK   66  A    between atoms: _160  and  _161
REMARK   67  A    between atoms: _163  and  _165
REMARK   68  A    between atoms: _165  and  _166
REMARK   69  A    between atoms: _165  and  _168
REMARK   70  A    between atoms: _168  and  _169
REMARK   71  A    between atoms: _174  and  _175
REMARK   72  A    between atoms: _177  and  _179
REMARK   73  A    between atoms: _179  and  _180
REMARK   74  A    between atoms: _179  and  _182
REMARK   75  A    between atoms: _182  and  _183
REMARK   76  A    between atoms: _193  and  _195
REMARK   77  A    between atoms: _195  and  _196
REMARK   78  A    between atoms: _195  and  _198
REMARK   79  A    between atoms: _198  and  _199
REMARK   80  A    between atoms: _202  and  _204
REMARK   81  A    between atoms: _204  and  _205
REMARK   82  A    between atoms: _204  and  _207
REMARK   83  A    between atoms: _207  and  _208
REMARK   84  A    between atoms: _211  and  _213
REMARK   85  A    between atoms: _213  and  _214
REMARK   86  A    between atoms: _213  and  _216
REMARK   87  A    between atoms: _216  and  _217
REMARK   88  A    between atoms: _222  and  _223
REMARK   89  A    between atoms: _225  and  _227
REMARK   90  A    between atoms: _227  and  _228
REMARK   91  A    between atoms: _230  and  _232
REMARK   92  A    between atoms: _232  and  _233
REMARK   93  A    between atoms: _236  and  _238
REMARK   94  A    between atoms: _238  and  _239
REMARK   95  A    between atoms: _238  and  _241
REMARK   96  A    between atoms: _241  and  _242
REMARK   97  A    between atoms: _242  and  _243
REMARK   98  A    between atoms: _243  and  _244
REMARK   99  A    between atoms: _244  and  _245
REMARK                            x       y       z     vdW  Elec       q    Type
REMARK                         _______ _______ _______ _____ _____    ______ ____
ROOT
ATOM      1  O   HOH     1      37.778  33.932  17.592  0.00  0.00    +0.000 OA
ENDROOT
TORSDOF 0
REMARK  Name = ../refined-set-2016/1ugx/1ugx_pocket.pdb
REMARK  99 active torsions:
REMARK  status: ('A' for Active; 'I' for Inactive)
REMARK    1  A    between atoms: _1  and  _5
REMARK    2  A    between atoms: _5  and  _6
REMARK    3  A    between atoms: _8  and  _10
REMARK    4  A    between atoms: _10  and  _11
REMARK    5  A    between atoms: _10  and  _13
REMARK    6  A    between atoms: _13  and  _14
REMARK    7  A    between atoms: _14  and  _15
REMARK    8  A    between atoms: _15  and  _16
REMARK    9  A    between atoms: _16  and  _17
REMARK   10  A    between atoms: _21  and  _23
REMARK   11  A    between atoms: _23  and  _24
REMARK   12  A    between atoms: _27  and  _29
REMARK   13  A    between atoms: _29  and  _30
REMARK   14  A    between atoms: _33  and  _35
REMARK   15  A    between atoms: _35  and  _36
REMARK   16  A    between atoms: _35  and  _38
REMARK   17  A    between atoms: _38  and  _39
REMARK   18  A    between atoms: _42  and  _44
REMARK   19  A    between atoms: _44  and  _45
REMARK   20  A    between atoms: _44  and  _47
REMARK   21  A    between atoms: _47  and  _48
REMARK   22  A    between atoms: _50  and  _52
REMARK   23  A    between atoms: _52  and  _53
REMARK   24  A    between atoms: _52  and  _55
REMARK   25  A    between atoms: _55  and  _56
REMARK   26  A    between atoms: _62  and  _64
REMARK   27  A    between atoms: _64  and  _65
REMARK   28  A    between atoms: _64  and  _67
REMARK   29  A    between atoms: _67  and  _68
REMARK   30  A    between atoms: _71  and  _73
REMARK   31  A    between atoms: _73  and  _74
REMARK   32  A    between atoms: _73  and  _76
REMARK   33  A    between atoms: _76  and  _77
REMARK   34  A    between atoms: _82  and  _84
REMARK   35  A    between atoms: _84  and  _85
REMARK   36  A    between atoms: _84  and  _87
REMARK   37  A    between atoms: _90  and  _92
REMARK   38  A    between atoms: _92  and  _93
REMARK   39  A    between atoms: _92  and  _95
REMARK   40  A    between atoms: _95  and  _96
REMARK   41  A    between atoms: _98  and  _100
REMARK   42  A    between atoms: _100  and  _101
REMARK   43  A    between atoms: _103  and  _105
REMARK   44  A    between atoms: _105  and  _106
REMARK   45  A    between atoms: _105  and  _108
REMARK   46  A    between atoms: _108  and  _109
REMARK   47  A    between atoms: _114  and  _115
REMARK   48  A    between atoms: _117  and  _119
REMARK   49  A    between atoms: _119  and  _120
REMARK   50  A    between atoms: _119  and  _122
REMARK   51  A    between atoms: _125  and  _127
REMARK   52  A    between atoms: _127  and  _128
REMARK   53  A    between atoms: _127  and  _130
REMARK   54  A    between atoms: _133  and  _135
REMARK   55  A    between atoms: _135  and  _136
REMARK   56  A    between atoms: _135  and  _138
REMARK   57  A    between atoms: _141  and  _143
REMARK   58  A    between atoms: _143  and  _144
REMARK   59  A    between atoms: _143  and  _146
REMARK   60  A    between atoms: _146  and  _147
REMARK   61  A    between atoms: _149  and  _151
REMARK   62  A    between atoms: _151  and  _152
REMARK   63  A    between atoms: _151  and  _154
REMARK   64  A    between atoms: _154  and  _155
REMARK   65  A    between atoms: _158  and  _160
REMARK   66  A    between atoms: _160  and  _161
REMARK   67  A    between atoms: _163  and  _165
REMARK   68  A    between atoms: _165  and  _166
REMARK   69  A    between atoms: _165  and  _168
REMARK   70  A    between atoms: _168  and  _169
REMARK   71  A    between atoms: _174  and  _175
REMARK   72  A    between atoms: _177  and  _179
REMARK   73  A    between atoms: _179  and  _180
REMARK   74  A    between atoms: _179  and  _182
REMARK   75  A    between atoms: _182  and  _183
REMARK   76  A    between atoms: _193  and  _195
REMARK   77  A    between atoms: _195  and  _196
REMARK   78  A    between atoms: _195  and  _198
REMARK   79  A    between atoms: _198  and  _199
REMARK   80  A    between atoms: _202  and  _204
REMARK   81  A    between atoms: _204  and  _205
REMARK   82  A    between atoms: _204  and  _207
REMARK   83  A    between atoms: _207  and  _208
REMARK   84  A    between atoms: _211  and  _213
REMARK   85  A    between atoms: _213  and  _214
REMARK   86  A    between atoms: _213  and  _216
REMARK   87  A    between atoms: _216  and  _217
REMARK   88  A    between atoms: _222  and  _223
REMARK   89  A    between atoms: _225  and  _227
REMARK   90  A    between atoms: _227  and  _228
REMARK   91  A    between atoms: _230  and  _232
REMARK   92  A    between atoms: _232  and  _233
REMARK   93  A    between atoms: _236  and  _238
REMARK   94  A    between atoms: _238  and  _239
REMARK   95  A    between atoms: _238  and  _241
REMARK   96  A    between atoms: _241  and  _242
REMARK   97  A    between atoms: _242  and  _243
REMARK   98  A    between atoms: _243  and  _244
REMARK   99  A    between atoms: _244  and  _245
REMARK                            x       y       z     vdW  Elec       q    Type
REMARK                         _______ _______ _______ _____ _____    ______ ____
ROOT
ATOM      1  O   HOH     1      34.092  42.349  19.877  0.00  0.00    +0.000 OA
ENDROOT
TORSDOF 0
REMARK  Name = ../refined-set-2016/1ugx/1ugx_pocket.pdb
REMARK  99 active torsions:
REMARK  status: ('A' for Active; 'I' for Inactive)
REMARK    1  A    between atoms: _1  and  _5
REMARK    2  A    between atoms: _5  and  _6
REMARK    3  A    between atoms: _8  and  _10
REMARK    4  A    between atoms: _10  and  _11
REMARK    5  A    between atoms: _10  and  _13
REMARK    6  A    between atoms: _13  and  _14
REMARK    7  A    between atoms: _14  and  _15
REMARK    8  A    between atoms: _15  and  _16
REMARK    9  A    between atoms: _16  and  _17
REMARK   10  A    between atoms: _21  and  _23
REMARK   11  A    between atoms: _23  and  _24
REMARK   12  A    between atoms: _27  and  _29
REMARK   13  A    between atoms: _29  and  _30
REMARK   14  A    between atoms: _33  and  _35
REMARK   15  A    between atoms: _35  and  _36
REMARK   16  A    between atoms: _35  and  _38
REMARK   17  A    between atoms: _38  and  _39
REMARK   18  A    between atoms: _42  and  _44
REMARK   19  A    between atoms: _44  and  _45
REMARK   20  A    between atoms: _44  and  _47
REMARK   21  A    between atoms: _47  and  _48
REMARK   22  A    between atoms: _50  and  _52
REMARK   23  A    between atoms: _52  and  _53
REMARK   24  A    between atoms: _52  and  _55
REMARK   25  A    between atoms: _55  and  _56
REMARK   26  A    between atoms: _62  and  _64
REMARK   27  A    between atoms: _64  and  _65
REMARK   28  A    between atoms: _64  and  _67
REMARK   29  A    between atoms: _67  and  _68
REMARK   30  A    between atoms: _71  and  _73
REMARK   31  A    between atoms: _73  and  _74
REMARK   32  A    between atoms: _73  and  _76
REMARK   33  A    between atoms: _76  and  _77
REMARK   34  A    between atoms: _82  and  _84
REMARK   35  A    between atoms: _84  and  _85
REMARK   36  A    between atoms: _84  and  _87
REMARK   37  A    between atoms: _90  and  _92
REMARK   38  A    between atoms: _92  and  _93
REMARK   39  A    between atoms: _92  and  _95
REMARK   40  A    between atoms: _95  and  _96
REMARK   41  A    between atoms: _98  and  _100
REMARK   42  A    between atoms: _100  and  _101
REMARK   43  A    between atoms: _103  and  _105
REMARK   44  A    between atoms: _105  and  _106
REMARK   45  A    between atoms: _105  and  _108
REMARK   46  A    between atoms: _108  and  _109
REMARK   47  A    between atoms: _114  and  _115
REMARK   48  A    between atoms: _117  and  _119
REMARK   49  A    between atoms: _119  and  _120
REMARK   50  A    between atoms: _119  and  _122
REMARK   51  A    between atoms: _125  and  _127
REMARK   52  A    between atoms: _127  and  _128
REMARK   53  A    between atoms: _127  and  _130
REMARK   54  A    between atoms: _133  and  _135
REMARK   55  A    between atoms: _135  and  _136
REMARK   56  A    between atoms: _135  and  _138
REMARK   57  A    between atoms: _141  and  _143
REMARK   58  A    between atoms: _143  and  _144
REMARK   59  A    between atoms: _143  and  _146
REMARK   60  A    between atoms: _146  and  _147
REMARK   61  A    between atoms: _149  and  _151
REMARK   62  A    between atoms: _151  and  _152
REMARK   63  A    between atoms: _151  and  _154
REMARK   64  A    between atoms: _154  and  _155
REMARK   65  A    between atoms: _158  and  _160
REMARK   66  A    between atoms: _160  and  _161
REMARK   67  A    between atoms: _163  and  _165
REMARK   68  A    between atoms: _165  and  _166
REMARK   69  A    between atoms: _165  and  _168
REMARK   70  A    between atoms: _168  and  _169
REMARK   71  A    between atoms: _174  and  _175
REMARK   72  A    between atoms: _177  and  _179
REMARK   73  A    between atoms: _179  and  _180
REMARK   74  A    between atoms: _179  and  _182
REMARK   75  A    between atoms: _182  and  _183
REMARK   76  A    between atoms: _193  and  _195
REMARK   77  A    between atoms: _195  and  _196
REMARK   78  A    between atoms: _195  and  _198
REMARK   79  A    between atoms: _198  and  _199
REMARK   80  A    between atoms: _202  and  _204
REMARK   81  A    between atoms: _204  and  _205
REMARK   82  A    between atoms: _204  and  _207
REMARK   83  A    between atoms: _207  and  _208
REMARK   84  A    between atoms: _211  and  _213
REMARK   85  A    between atoms: _213  and  _214
REMARK   86  A    between atoms: _213  and  _216
REMARK   87  A    between atoms: _216  and  _217
REMARK   88  A    between atoms: _222  and  _223
REMARK   89  A    between atoms: _225  and  _227
REMARK   90  A    between atoms: _227  and  _228
REMARK   91  A    between atoms: _230  and  _232
REMARK   92  A    between atoms: _232  and  _233
REMARK   93  A    between atoms: _236  and  _238
REMARK   94  A    between atoms: _238  and  _239
REMARK   95  A    between atoms: _238  and  _241
REMARK   96  A    between atoms: _241  and  _242
REMARK   97  A    between atoms: _242  and  _243
REMARK   98  A    between atoms: _243  and  _244
REMARK   99  A    between atoms: _244  and  _245
REMARK                            x       y       z     vdW  Elec       q    Type
REMARK                         _______ _______ _______ _____ _____    ______ ____
ROOT
ATOM      1  O   HOH     1      37.952  40.761  20.254  0.00  0.00    +0.000 OA
ENDROOT
TORSDOF 0
