REMARK  Name = ../refined-set-2016/3ryx/3ryx_pocket.pdb
REMARK  162 active torsions:
REMARK  status: ('A' for Active; 'I' for Inactive)
REMARK    1  A    between atoms: _1  and  _3
REMARK    2  A    between atoms: _3  and  _4
REMARK    3  A    between atoms: _3  and  _6
REMARK    4  A    between atoms: _6  and  _7
REMARK    5  A    between atoms: _17  and  _19
REMARK    6  A    between atoms: _19  and  _20
REMARK    7  A    between atoms: _19  and  _22
REMARK    8  A    between atoms: _22  and  _23
REMARK    9  A    between atoms: _28  and  _29
REMARK   10  A    between atoms: _31  and  _33
REMARK   11  A    between atoms: _33  and  _34
REMARK   12  A    between atoms: _33  and  _36
REMARK   13  A    between atoms: _36  and  _37
REMARK   14  A    between atoms: _43  and  _45
REMARK   15  A    between atoms: _45  and  _46
REMARK   16  A    between atoms: _45  and  _48
REMARK   17  A    between atoms: _48  and  _49
REMARK   18  A    between atoms: _52  and  _53
REMARK   19  A    between atoms: _58  and  _60
REMARK   20  A    between atoms: _60  and  _61
REMARK   21  A    between atoms: _60  and  _63
REMARK   22  A    between atoms: _63  and  _64
REMARK   23  A    between atoms: _69  and  _71
REMARK   24  A    between atoms: _71  and  _72
REMARK   25  A    between atoms: _71  and  _74
REMARK   26  A    between atoms: _74  and  _75
REMARK   27  A    between atoms: _80  and  _82
REMARK   28  A    between atoms: _82  and  _83
REMARK   29  A    between atoms: _86  and  _88
REMARK   30  A    between atoms: _88  and  _89
REMARK   31  A    between atoms: _88  and  _91
REMARK   32  A    between atoms: _91  and  _92
REMARK   33  A    between atoms: _97  and  _99
REMARK   34  A    between atoms: _99  and  _100
REMARK   35  A    between atoms: _99  and  _102
REMARK   36  A    between atoms: _102  and  _103
REMARK   37  A    between atoms: _106  and  _108
REMARK   38  A    between atoms: _108  and  _109
REMARK   39  A    between atoms: _108  and  _111
REMARK   40  A    between atoms: _111  and  _112
REMARK   41  A    between atoms: _112  and  _113
REMARK   42  A    between atoms: _118  and  _120
REMARK   43  A    between atoms: _120  and  _121
REMARK   44  A    between atoms: _120  and  _123
REMARK   45  A    between atoms: _123  and  _124
REMARK   46  A    between atoms: _130  and  _132
REMARK   47  A    between atoms: _143  and  _146
REMARK   48  A    between atoms: _146  and  _147
REMARK   49  A    between atoms: _155  and  _156
REMARK   50  A    between atoms: _164  and  _166
REMARK   51  A    between atoms: _166  and  _167
REMARK   52  A    between atoms: _166  and  _169
REMARK   53  A    between atoms: _169  and  _170
REMARK   54  A    between atoms: _170  and  _171
REMARK   55  A    between atoms: _174  and  _176
REMARK   56  A    between atoms: _176  and  _177
REMARK   57  A    between atoms: _176  and  _179
REMARK   58  A    between atoms: _179  and  _180
REMARK   59  A    between atoms: _185  and  _187
REMARK   60  A    between atoms: _187  and  _188
REMARK   61  A    between atoms: _187  and  _190
REMARK   62  A    between atoms: _190  and  _191
REMARK   63  A    between atoms: _191  and  _192
REMARK   64  A    between atoms: _195  and  _197
REMARK   65  A    between atoms: _197  and  _198
REMARK   66  A    between atoms: _197  and  _200
REMARK   67  A    between atoms: _200  and  _201
REMARK   68  A    between atoms: _204  and  _206
REMARK   69  A    between atoms: _206  and  _207
REMARK   70  A    between atoms: _206  and  _209
REMARK   71  A    between atoms: _209  and  _210
REMARK   72  A    between atoms: _211  and  ZN_454
REMARK   73  A    between atoms: _215  and  _217
REMARK   74  A    between atoms: _217  and  _218
REMARK   75  A    between atoms: _217  and  _220
REMARK   76  A    between atoms: _220  and  _221
REMARK   77  A    between atoms: _224  and  _226
REMARK   78  A    between atoms: _226  and  _227
REMARK   79  A    between atoms: _226  and  _229
REMARK   80  A    between atoms: _232  and  _234
REMARK   81  A    between atoms: _234  and  _235
REMARK   82  A    between atoms: _234  and  _237
REMARK   83  A    between atoms: _237  and  _238
REMARK   84  A    between atoms: _243  and  _245
REMARK   85  A    between atoms: _245  and  _246
REMARK   86  A    between atoms: _245  and  _248
REMARK   87  A    between atoms: _248  and  _249
REMARK   88  A    between atoms: _255  and  _257
REMARK   89  A    between atoms: _257  and  _258
REMARK   90  A    between atoms: _260  and  _262
REMARK   91  A    between atoms: _262  and  _263
REMARK   92  A    between atoms: _266  and  _268
REMARK   93  A    between atoms: _268  and  _269
REMARK   94  A    between atoms: _268  and  _271
REMARK   95  A    between atoms: _274  and  _276
REMARK   96  A    between atoms: _276  and  _277
REMARK   97  A    between atoms: _276  and  _279
REMARK   98  A    between atoms: _279  and  _280
REMARK   99  A    between atoms: _280  and  _281
REMARK  100  A    between atoms: _286  and  _288
REMARK  101  A    between atoms: _288  and  _289
REMARK  102  A    between atoms: _288  and  _291
REMARK  103  A    between atoms: _291  and  _292
REMARK  104  A    between atoms: _295  and  _297
REMARK  105  A    between atoms: _297  and  _298
REMARK  106  A    between atoms: _301  and  _303
REMARK  107  A    between atoms: _303  and  _304
REMARK  108  A    between atoms: _303  and  _306
REMARK  109  A    between atoms: _309  and  _311
REMARK  110  A    between atoms: _311  and  _312
REMARK  111  A    between atoms: _311  and  _314
REMARK  112  A    between atoms: _314  and  _315
REMARK  113  A    between atoms: _318  and  _320
REMARK  114  A    between atoms: _320  and  _321
REMARK  115  A    between atoms: _323  and  _325
REMARK  116  A    between atoms: _325  and  _326
REMARK  117  A    between atoms: _328  and  _330
REMARK  118  A    between atoms: _330  and  _331
REMARK  119  A    between atoms: _330  and  _333
REMARK  120  A    between atoms: _333  and  _334
REMARK  121  A    between atoms: _336  and  _338
REMARK  122  A    between atoms: _338  and  _339
REMARK  123  A    between atoms: _338  and  _341
REMARK  124  A    between atoms: _341  and  _342
REMARK  125  A    between atoms: _345  and  _347
REMARK  126  A    between atoms: _347  and  _348
REMARK  127  A    between atoms: _347  and  _350
REMARK  128  A    between atoms: _350  and  _351
REMARK  129  A    between atoms: _354  and  _356
REMARK  130  A    between atoms: _356  and  _357
REMARK  131  A    between atoms: _356  and  _359
REMARK  132  A    between atoms: _359  and  _360
REMARK  133  A    between atoms: _364  and  _365
REMARK  134  A    between atoms: _371  and  _372
REMARK  135  A    between atoms: _377  and  _379
REMARK  136  A    between atoms: _379  and  _380
REMARK  137  A    between atoms: _379  and  _382
REMARK  138  A    between atoms: _382  and  _383
REMARK  139  A    between atoms: _386  and  _388
REMARK  140  A    between atoms: _388  and  _389
REMARK  141  A    between atoms: _388  and  _391
REMARK  142  A    between atoms: _391  and  _392
REMARK  143  A    between atoms: _395  and  _397
REMARK  144  A    between atoms: _397  and  _398
REMARK  145  A    between atoms: _397  and  _400
REMARK  146  A    between atoms: _402  and  _404
REMARK  147  A    between atoms: _404  and  _405
REMARK  148  A    between atoms: _404  and  _407
REMARK  149  A    between atoms: _410  and  _412
REMARK  150  A    between atoms: _412  and  _413
REMARK  151  A    between atoms: _412  and  _415
REMARK  152  A    between atoms: _415  and  _416
REMARK  153  A    between atoms: _426  and  _428
REMARK  154  A    between atoms: _428  and  _429
REMARK  155  A    between atoms: _428  and  _431
REMARK  156  A    between atoms: _431  and  _432
REMARK  157  A    between atoms: _437  and  _439
REMARK  158  A    between atoms: _439  and  _440
REMARK  159  A    between atoms: _439  and  _442
REMARK  160  A    between atoms: _442  and  _443
REMARK  161  A    between atoms: _443  and  _444
REMARK  162  A    between atoms: _444  and  _445
REMARK                            x       y       z     vdW  Elec       q    Type
REMARK                         _______ _______ _______ _____ _____    ______ ____
ROOT
ATOM      1  CG  TRP A   1      26.922  -0.805  12.094  0.00  0.00    -0.002 A 
ATOM      2  CD2 TRP A   1      25.584  -1.306  12.084  0.00  0.00    +0.013 A 
ATOM      3  CE3 TRP A   1      25.028  -2.573  12.305  0.00  0.00    +0.001 A 
ATOM      4  CZ3 TRP A   1      23.611  -2.716  12.209  0.00  0.00    +0.000 A 
ATOM      5  CH2 TRP A   1      22.797  -1.623  11.882  0.00  0.00    +0.001 A 
ATOM      6  CZ2 TRP A   1      23.325  -0.372  11.659  0.00  0.00    +0.017 A 
ATOM      7  CE2 TRP A   1      24.725  -0.222  11.767  0.00  0.00    +0.056 A 
ATOM      8  NE1 TRP A   1      25.516   0.888  11.582  0.00  0.00    -0.352 N 
ATOM      9  HE1 TRP A   1      25.180   1.832  11.302  0.00  0.00    +0.166 HD
ATOM     10  CD1 TRP A   1      26.839   0.540  11.831  0.00  0.00    +0.068 A 
ENDROOT
BRANCH   1  11
ATOM     11  CB  TRP A   1      28.170  -1.604  12.433  0.00  0.00    +0.053 C 
BRANCH  11  12
ATOM     12  CA  TRP A   1      28.844  -2.235  11.225  0.00  0.00    +0.137 C 
BRANCH  12  13
ATOM     13  N   TRP A   1      29.338  -1.184  10.331  0.00  0.00    -0.239 NA
ATOM     14  H   TRP A   1      28.889  -0.246  10.306  0.00  0.00    +0.142 HD
ENDBRANCH  12  13
BRANCH  12  15
ATOM     15  C   TRP A   1      27.849  -3.130  10.478  0.00  0.00    +0.224 C 
ATOM     16  O   TRP A   1      27.256  -2.697   9.475  0.00  0.00    -0.287 OA
ENDBRANCH  12  15
ENDBRANCH  11  12
ENDBRANCH   1  11
TORSDOF 4
REMARK  Name = ../refined-set-2016/3ryx/3ryx_pocket.pdb
REMARK  162 active torsions:
REMARK  status: ('A' for Active; 'I' for Inactive)
REMARK    1  A    between atoms: _1  and  _3
REMARK    2  A    between atoms: _3  and  _4
REMARK    3  A    between atoms: _3  and  _6
REMARK    4  A    between atoms: _6  and  _7
REMARK    5  A    between atoms: _17  and  _19
REMARK    6  A    between atoms: _19  and  _20
REMARK    7  A    between atoms: _19  and  _22
REMARK    8  A    between atoms: _22  and  _23
REMARK    9  A    between atoms: _28  and  _29
REMARK   10  A    between atoms: _31  and  _33
REMARK   11  A    between atoms: _33  and  _34
REMARK   12  A    between atoms: _33  and  _36
REMARK   13  A    between atoms: _36  and  _37
REMARK   14  A    between atoms: _43  and  _45
REMARK   15  A    between atoms: _45  and  _46
REMARK   16  A    between atoms: _45  and  _48
REMARK   17  A    between atoms: _48  and  _49
REMARK   18  A    between atoms: _52  and  _53
REMARK   19  A    between atoms: _58  and  _60
REMARK   20  A    between atoms: _60  and  _61
REMARK   21  A    between atoms: _60  and  _63
REMARK   22  A    between atoms: _63  and  _64
REMARK   23  A    between atoms: _69  and  _71
REMARK   24  A    between atoms: _71  and  _72
REMARK   25  A    between atoms: _71  and  _74
REMARK   26  A    between atoms: _74  and  _75
REMARK   27  A    between atoms: _80  and  _82
REMARK   28  A    between atoms: _82  and  _83
REMARK   29  A    between atoms: _86  and  _88
REMARK   30  A    between atoms: _88  and  _89
REMARK   31  A    between atoms: _88  and  _91
REMARK   32  A    between atoms: _91  and  _92
REMARK   33  A    between atoms: _97  and  _99
REMARK   34  A    between atoms: _99  and  _100
REMARK   35  A    between atoms: _99  and  _102
REMARK   36  A    between atoms: _102  and  _103
REMARK   37  A    between atoms: _106  and  _108
REMARK   38  A    between atoms: _108  and  _109
REMARK   39  A    between atoms: _108  and  _111
REMARK   40  A    between atoms: _111  and  _112
REMARK   41  A    between atoms: _112  and  _113
REMARK   42  A    between atoms: _118  and  _120
REMARK   43  A    between atoms: _120  and  _121
REMARK   44  A    between atoms: _120  and  _123
REMARK   45  A    between atoms: _123  and  _124
REMARK   46  A    between atoms: _130  and  _132
REMARK   47  A    between atoms: _143  and  _146
REMARK   48  A    between atoms: _146  and  _147
REMARK   49  A    between atoms: _155  and  _156
REMARK   50  A    between atoms: _164  and  _166
REMARK   51  A    between atoms: _166  and  _167
REMARK   52  A    between atoms: _166  and  _169
REMARK   53  A    between atoms: _169  and  _170
REMARK   54  A    between atoms: _170  and  _171
REMARK   55  A    between atoms: _174  and  _176
REMARK   56  A    between atoms: _176  and  _177
REMARK   57  A    between atoms: _176  and  _179
REMARK   58  A    between atoms: _179  and  _180
REMARK   59  A    between atoms: _185  and  _187
REMARK   60  A    between atoms: _187  and  _188
REMARK   61  A    between atoms: _187  and  _190
REMARK   62  A    between atoms: _190  and  _191
REMARK   63  A    between atoms: _191  and  _192
REMARK   64  A    between atoms: _195  and  _197
REMARK   65  A    between atoms: _197  and  _198
REMARK   66  A    between atoms: _197  and  _200
REMARK   67  A    between atoms: _200  and  _201
REMARK   68  A    between atoms: _204  and  _206
REMARK   69  A    between atoms: _206  and  _207
REMARK   70  A    between atoms: _206  and  _209
REMARK   71  A    between atoms: _209  and  _210
REMARK   72  A    between atoms: _211  and  ZN_454
REMARK   73  A    between atoms: _215  and  _217
REMARK   74  A    between atoms: _217  and  _218
REMARK   75  A    between atoms: _217  and  _220
REMARK   76  A    between atoms: _220  and  _221
REMARK   77  A    between atoms: _224  and  _226
REMARK   78  A    between atoms: _226  and  _227
REMARK   79  A    between atoms: _226  and  _229
REMARK   80  A    between atoms: _232  and  _234
REMARK   81  A    between atoms: _234  and  _235
REMARK   82  A    between atoms: _234  and  _237
REMARK   83  A    between atoms: _237  and  _238
REMARK   84  A    between atoms: _243  and  _245
REMARK   85  A    between atoms: _245  and  _246
REMARK   86  A    between atoms: _245  and  _248
REMARK   87  A    between atoms: _248  and  _249
REMARK   88  A    between atoms: _255  and  _257
REMARK   89  A    between atoms: _257  and  _258
REMARK   90  A    between atoms: _260  and  _262
REMARK   91  A    between atoms: _262  and  _263
REMARK   92  A    between atoms: _266  and  _268
REMARK   93  A    between atoms: _268  and  _269
REMARK   94  A    between atoms: _268  and  _271
REMARK   95  A    between atoms: _274  and  _276
REMARK   96  A    between atoms: _276  and  _277
REMARK   97  A    between atoms: _276  and  _279
REMARK   98  A    between atoms: _279  and  _280
REMARK   99  A    between atoms: _280  and  _281
REMARK  100  A    between atoms: _286  and  _288
REMARK  101  A    between atoms: _288  and  _289
REMARK  102  A    between atoms: _288  and  _291
REMARK  103  A    between atoms: _291  and  _292
REMARK  104  A    between atoms: _295  and  _297
REMARK  105  A    between atoms: _297  and  _298
REMARK  106  A    between atoms: _301  and  _303
REMARK  107  A    between atoms: _303  and  _304
REMARK  108  A    between atoms: _303  and  _306
REMARK  109  A    between atoms: _309  and  _311
REMARK  110  A    between atoms: _311  and  _312
REMARK  111  A    between atoms: _311  and  _314
REMARK  112  A    between atoms: _314  and  _315
REMARK  113  A    between atoms: _318  and  _320
REMARK  114  A    between atoms: _320  and  _321
REMARK  115  A    between atoms: _323  and  _325
REMARK  116  A    between atoms: _325  and  _326
REMARK  117  A    between atoms: _328  and  _330
REMARK  118  A    between atoms: _330  and  _331
REMARK  119  A    between atoms: _330  and  _333
REMARK  120  A    between atoms: _333  and  _334
REMARK  121  A    between atoms: _336  and  _338
REMARK  122  A    between atoms: _338  and  _339
REMARK  123  A    between atoms: _338  and  _341
REMARK  124  A    between atoms: _341  and  _342
REMARK  125  A    between atoms: _345  and  _347
REMARK  126  A    between atoms: _347  and  _348
REMARK  127  A    between atoms: _347  and  _350
REMARK  128  A    between atoms: _350  and  _351
REMARK  129  A    between atoms: _354  and  _356
REMARK  130  A    between atoms: _356  and  _357
REMARK  131  A    between atoms: _356  and  _359
REMARK  132  A    between atoms: _359  and  _360
REMARK  133  A    between atoms: _364  and  _365
REMARK  134  A    between atoms: _371  and  _372
REMARK  135  A    between atoms: _377  and  _379
REMARK  136  A    between atoms: _379  and  _380
REMARK  137  A    between atoms: _379  and  _382
REMARK  138  A    between atoms: _382  and  _383
REMARK  139  A    between atoms: _386  and  _388
REMARK  140  A    between atoms: _388  and  _389
REMARK  141  A    between atoms: _388  and  _391
REMARK  142  A    between atoms: _391  and  _392
REMARK  143  A    between atoms: _395  and  _397
REMARK  144  A    between atoms: _397  and  _398
REMARK  145  A    between atoms: _397  and  _400
REMARK  146  A    between atoms: _402  and  _404
REMARK  147  A    between atoms: _404  and  _405
REMARK  148  A    between atoms: _404  and  _407
REMARK  149  A    between atoms: _410  and  _412
REMARK  150  A    between atoms: _412  and  _413
REMARK  151  A    between atoms: _412  and  _415
REMARK  152  A    between atoms: _415  and  _416
REMARK  153  A    between atoms: _426  and  _428
REMARK  154  A    between atoms: _428  and  _429
REMARK  155  A    between atoms: _428  and  _431
REMARK  156  A    between atoms: _431  and  _432
REMARK  157  A    between atoms: _437  and  _439
REMARK  158  A    between atoms: _439  and  _440
REMARK  159  A    between atoms: _439  and  _442
REMARK  160  A    between atoms: _442  and  _443
REMARK  161  A    between atoms: _443  and  _444
REMARK  162  A    between atoms: _444  and  _445
REMARK                            x       y       z     vdW  Elec       q    Type
REMARK                         _______ _______ _______ _____ _____    ______ ____
ROOT
ATOM      1  CG  TYR A   1      23.279  -7.995  11.935  0.00  0.00    -0.020 A 
ATOM      2  CD2 TYR A   1      22.878  -8.018  13.300  0.00  0.00    -0.001 A 
ATOM      3  CE2 TYR A   1      22.056  -7.052  13.806  0.00  0.00    +0.036 A 
ATOM      4  CZ  TYR A   1      21.466  -6.091  12.909  0.00  0.00    +0.134 A 
ATOM      5  CE1 TYR A   1      21.871  -6.036  11.559  0.00  0.00    +0.036 A 
ATOM      6  CD1 TYR A   1      22.717  -7.035  11.071  0.00  0.00    -0.001 A 
ENDROOT
BRANCH   4   7
ATOM      7  OH  TYR A   1      20.629  -5.075  13.319  0.00  0.00    -0.506 OA
ATOM      8  HH  TYR A   1      20.348  -4.543  12.533  0.00  0.00    +0.292 HD
ENDBRANCH   4   7
BRANCH   1   9
ATOM      9  CB  TYR A   1      24.190  -9.059  11.407  0.00  0.00    +0.051 C 
BRANCH   9  10
ATOM     10  CA  TYR A   1      25.661  -8.673  11.574  0.00  0.00    +0.137 C 
BRANCH  10  11
ATOM     11  N   TYR A   1      25.986  -7.537  10.758  0.00  0.00    -0.239 NA
ATOM     12  H   TYR A   1      25.971  -7.620   9.721  0.00  0.00    +0.142 HD
ENDBRANCH  10  11
BRANCH  10  13
ATOM     13  C   TYR A   1      26.536  -9.870  11.344  0.00  0.00    +0.224 C 
ATOM     14  O   TYR A   1      26.224 -10.932  11.882  0.00  0.00    -0.287 OA
ENDBRANCH  10  13
ENDBRANCH   9  10
ENDBRANCH   1   9
TORSDOF 5
REMARK  Name = ../refined-set-2016/3ryx/3ryx_pocket.pdb
REMARK  162 active torsions:
REMARK  status: ('A' for Active; 'I' for Inactive)
REMARK    1  A    between atoms: _1  and  _3
REMARK    2  A    between atoms: _3  and  _4
REMARK    3  A    between atoms: _3  and  _6
REMARK    4  A    between atoms: _6  and  _7
REMARK    5  A    between atoms: _17  and  _19
REMARK    6  A    between atoms: _19  and  _20
REMARK    7  A    between atoms: _19  and  _22
REMARK    8  A    between atoms: _22  and  _23
REMARK    9  A    between atoms: _28  and  _29
REMARK   10  A    between atoms: _31  and  _33
REMARK   11  A    between atoms: _33  and  _34
REMARK   12  A    between atoms: _33  and  _36
REMARK   13  A    between atoms: _36  and  _37
REMARK   14  A    between atoms: _43  and  _45
REMARK   15  A    between atoms: _45  and  _46
REMARK   16  A    between atoms: _45  and  _48
REMARK   17  A    between atoms: _48  and  _49
REMARK   18  A    between atoms: _52  and  _53
REMARK   19  A    between atoms: _58  and  _60
REMARK   20  A    between atoms: _60  and  _61
REMARK   21  A    between atoms: _60  and  _63
REMARK   22  A    between atoms: _63  and  _64
REMARK   23  A    between atoms: _69  and  _71
REMARK   24  A    between atoms: _71  and  _72
REMARK   25  A    between atoms: _71  and  _74
REMARK   26  A    between atoms: _74  and  _75
REMARK   27  A    between atoms: _80  and  _82
REMARK   28  A    between atoms: _82  and  _83
REMARK   29  A    between atoms: _86  and  _88
REMARK   30  A    between atoms: _88  and  _89
REMARK   31  A    between atoms: _88  and  _91
REMARK   32  A    between atoms: _91  and  _92
REMARK   33  A    between atoms: _97  and  _99
REMARK   34  A    between atoms: _99  and  _100
REMARK   35  A    between atoms: _99  and  _102
REMARK   36  A    between atoms: _102  and  _103
REMARK   37  A    between atoms: _106  and  _108
REMARK   38  A    between atoms: _108  and  _109
REMARK   39  A    between atoms: _108  and  _111
REMARK   40  A    between atoms: _111  and  _112
REMARK   41  A    between atoms: _112  and  _113
REMARK   42  A    between atoms: _118  and  _120
REMARK   43  A    between atoms: _120  and  _121
REMARK   44  A    between atoms: _120  and  _123
REMARK   45  A    between atoms: _123  and  _124
REMARK   46  A    between atoms: _130  and  _132
REMARK   47  A    between atoms: _143  and  _146
REMARK   48  A    between atoms: _146  and  _147
REMARK   49  A    between atoms: _155  and  _156
REMARK   50  A    between atoms: _164  and  _166
REMARK   51  A    between atoms: _166  and  _167
REMARK   52  A    between atoms: _166  and  _169
REMARK   53  A    between atoms: _169  and  _170
REMARK   54  A    between atoms: _170  and  _171
REMARK   55  A    between atoms: _174  and  _176
REMARK   56  A    between atoms: _176  and  _177
REMARK   57  A    between atoms: _176  and  _179
REMARK   58  A    between atoms: _179  and  _180
REMARK   59  A    between atoms: _185  and  _187
REMARK   60  A    between atoms: _187  and  _188
REMARK   61  A    between atoms: _187  and  _190
REMARK   62  A    between atoms: _190  and  _191
REMARK   63  A    between atoms: _191  and  _192
REMARK   64  A    between atoms: _195  and  _197
REMARK   65  A    between atoms: _197  and  _198
REMARK   66  A    between atoms: _197  and  _200
REMARK   67  A    between atoms: _200  and  _201
REMARK   68  A    between atoms: _204  and  _206
REMARK   69  A    between atoms: _206  and  _207
REMARK   70  A    between atoms: _206  and  _209
REMARK   71  A    between atoms: _209  and  _210
REMARK   72  A    between atoms: _211  and  ZN_454
REMARK   73  A    between atoms: _215  and  _217
REMARK   74  A    between atoms: _217  and  _218
REMARK   75  A    between atoms: _217  and  _220
REMARK   76  A    between atoms: _220  and  _221
REMARK   77  A    between atoms: _224  and  _226
REMARK   78  A    between atoms: _226  and  _227
REMARK   79  A    between atoms: _226  and  _229
REMARK   80  A    between atoms: _232  and  _234
REMARK   81  A    between atoms: _234  and  _235
REMARK   82  A    between atoms: _234  and  _237
REMARK   83  A    between atoms: _237  and  _238
REMARK   84  A    between atoms: _243  and  _245
REMARK   85  A    between atoms: _245  and  _246
REMARK   86  A    between atoms: _245  and  _248
REMARK   87  A    between atoms: _248  and  _249
REMARK   88  A    between atoms: _255  and  _257
REMARK   89  A    between atoms: _257  and  _258
REMARK   90  A    between atoms: _260  and  _262
REMARK   91  A    between atoms: _262  and  _263
REMARK   92  A    between atoms: _266  and  _268
REMARK   93  A    between atoms: _268  and  _269
REMARK   94  A    between atoms: _268  and  _271
REMARK   95  A    between atoms: _274  and  _276
REMARK   96  A    between atoms: _276  and  _277
REMARK   97  A    between atoms: _276  and  _279
REMARK   98  A    between atoms: _279  and  _280
REMARK   99  A    between atoms: _280  and  _281
REMARK  100  A    between atoms: _286  and  _288
REMARK  101  A    between atoms: _288  and  _289
REMARK  102  A    between atoms: _288  and  _291
REMARK  103  A    between atoms: _291  and  _292
REMARK  104  A    between atoms: _295  and  _297
REMARK  105  A    between atoms: _297  and  _298
REMARK  106  A    between atoms: _301  and  _303
REMARK  107  A    between atoms: _303  and  _304
REMARK  108  A    between atoms: _303  and  _306
REMARK  109  A    between atoms: _309  and  _311
REMARK  110  A    between atoms: _311  and  _312
REMARK  111  A    between atoms: _311  and  _314
REMARK  112  A    between atoms: _314  and  _315
REMARK  113  A    between atoms: _318  and  _320
REMARK  114  A    between atoms: _320  and  _321
REMARK  115  A    between atoms: _323  and  _325
REMARK  116  A    between atoms: _325  and  _326
REMARK  117  A    between atoms: _328  and  _330
REMARK  118  A    between atoms: _330  and  _331
REMARK  119  A    between atoms: _330  and  _333
REMARK  120  A    between atoms: _333  and  _334
REMARK  121  A    between atoms: _336  and  _338
REMARK  122  A    between atoms: _338  and  _339
REMARK  123  A    between atoms: _338  and  _341
REMARK  124  A    between atoms: _341  and  _342
REMARK  125  A    between atoms: _345  and  _347
REMARK  126  A    between atoms: _347  and  _348
REMARK  127  A    between atoms: _347  and  _350
REMARK  128  A    between atoms: _350  and  _351
REMARK  129  A    between atoms: _354  and  _356
REMARK  130  A    between atoms: _356  and  _357
REMARK  131  A    between atoms: _356  and  _359
REMARK  132  A    between atoms: _359  and  _360
REMARK  133  A    between atoms: _364  and  _365
REMARK  134  A    between atoms: _371  and  _372
REMARK  135  A    between atoms: _377  and  _379
REMARK  136  A    between atoms: _379  and  _380
REMARK  137  A    between atoms: _379  and  _382
REMARK  138  A    between atoms: _382  and  _383
REMARK  139  A    between atoms: _386  and  _388
REMARK  140  A    between atoms: _388  and  _389
REMARK  141  A    between atoms: _388  and  _391
REMARK  142  A    between atoms: _391  and  _392
REMARK  143  A    between atoms: _395  and  _397
REMARK  144  A    between atoms: _397  and  _398
REMARK  145  A    between atoms: _397  and  _400
REMARK  146  A    between atoms: _402  and  _404
REMARK  147  A    between atoms: _404  and  _405
REMARK  148  A    between atoms: _404  and  _407
REMARK  149  A    between atoms: _410  and  _412
REMARK  150  A    between atoms: _412  and  _413
REMARK  151  A    between atoms: _412  and  _415
REMARK  152  A    between atoms: _415  and  _416
REMARK  153  A    between atoms: _426  and  _428
REMARK  154  A    between atoms: _428  and  _429
REMARK  155  A    between atoms: _428  and  _431
REMARK  156  A    between atoms: _431  and  _432
REMARK  157  A    between atoms: _437  and  _439
REMARK  158  A    between atoms: _439  and  _440
REMARK  159  A    between atoms: _439  and  _442
REMARK  160  A    between atoms: _442  and  _443
REMARK  161  A    between atoms: _443  and  _444
REMARK  162  A    between atoms: _444  and  _445
REMARK                            x       y       z     vdW  Elec       q    Type
REMARK                         _______ _______ _______ _____ _____    ______ ____
ROOT
ATOM      1  CB  PHE A   1      28.721   2.313  19.146  0.00  0.00    +0.051 C 
ENDROOT
BRANCH   1   2
ATOM      2  CG  PHE A   1      28.643   2.693  17.695  0.00  0.00    -0.020 A 
ATOM      3  CD2 PHE A   1      28.286   4.006  17.339  0.00  0.00    -0.004 A 
ATOM      4  CE2 PHE A   1      28.239   4.394  16.011  0.00  0.00    -0.000 A 
ATOM      5  CZ  PHE A   1      28.590   3.452  14.980  0.00  0.00    -0.000 A 
ATOM      6  CE1 PHE A   1      28.948   2.126  15.308  0.00  0.00    -0.000 A 
ATOM      7  CD1 PHE A   1      28.986   1.764  16.677  0.00  0.00    -0.004 A 
ENDBRANCH   1   2
BRANCH   1   8
ATOM      8  CA  PHE A   1      30.034   2.797  19.824  0.00  0.00    +0.137 C 
BRANCH   8   9
ATOM      9  N   PHE A   1      31.178   2.277  19.071  0.00  0.00    -0.239 NA
ATOM     10  H   PHE A   1      31.400   1.264  19.150  0.00  0.00    +0.142 HD
ENDBRANCH   8   9
BRANCH   8  11
ATOM     11  C   PHE A   1      30.165   2.296  21.247  0.00  0.00    +0.224 C 
ATOM     12  O   PHE A   1      29.502   1.340  21.599  0.00  0.00    -0.287 OA
ENDBRANCH   8  11
ENDBRANCH   1   8
TORSDOF 4
REMARK  Name = ../refined-set-2016/3ryx/3ryx_pocket.pdb
REMARK  162 active torsions:
REMARK  status: ('A' for Active; 'I' for Inactive)
REMARK    1  A    between atoms: _1  and  _3
REMARK    2  A    between atoms: _3  and  _4
REMARK    3  A    between atoms: _3  and  _6
REMARK    4  A    between atoms: _6  and  _7
REMARK    5  A    between atoms: _17  and  _19
REMARK    6  A    between atoms: _19  and  _20
REMARK    7  A    between atoms: _19  and  _22
REMARK    8  A    between atoms: _22  and  _23
REMARK    9  A    between atoms: _28  and  _29
REMARK   10  A    between atoms: _31  and  _33
REMARK   11  A    between atoms: _33  and  _34
REMARK   12  A    between atoms: _33  and  _36
REMARK   13  A    between atoms: _36  and  _37
REMARK   14  A    between atoms: _43  and  _45
REMARK   15  A    between atoms: _45  and  _46
REMARK   16  A    between atoms: _45  and  _48
REMARK   17  A    between atoms: _48  and  _49
REMARK   18  A    between atoms: _52  and  _53
REMARK   19  A    between atoms: _58  and  _60
REMARK   20  A    between atoms: _60  and  _61
REMARK   21  A    between atoms: _60  and  _63
REMARK   22  A    between atoms: _63  and  _64
REMARK   23  A    between atoms: _69  and  _71
REMARK   24  A    between atoms: _71  and  _72
REMARK   25  A    between atoms: _71  and  _74
REMARK   26  A    between atoms: _74  and  _75
REMARK   27  A    between atoms: _80  and  _82
REMARK   28  A    between atoms: _82  and  _83
REMARK   29  A    between atoms: _86  and  _88
REMARK   30  A    between atoms: _88  and  _89
REMARK   31  A    between atoms: _88  and  _91
REMARK   32  A    between atoms: _91  and  _92
REMARK   33  A    between atoms: _97  and  _99
REMARK   34  A    between atoms: _99  and  _100
REMARK   35  A    between atoms: _99  and  _102
REMARK   36  A    between atoms: _102  and  _103
REMARK   37  A    between atoms: _106  and  _108
REMARK   38  A    between atoms: _108  and  _109
REMARK   39  A    between atoms: _108  and  _111
REMARK   40  A    between atoms: _111  and  _112
REMARK   41  A    between atoms: _112  and  _113
REMARK   42  A    between atoms: _118  and  _120
REMARK   43  A    between atoms: _120  and  _121
REMARK   44  A    between atoms: _120  and  _123
REMARK   45  A    between atoms: _123  and  _124
REMARK   46  A    between atoms: _130  and  _132
REMARK   47  A    between atoms: _143  and  _146
REMARK   48  A    between atoms: _146  and  _147
REMARK   49  A    between atoms: _155  and  _156
REMARK   50  A    between atoms: _164  and  _166
REMARK   51  A    between atoms: _166  and  _167
REMARK   52  A    between atoms: _166  and  _169
REMARK   53  A    between atoms: _169  and  _170
REMARK   54  A    between atoms: _170  and  _171
REMARK   55  A    between atoms: _174  and  _176
REMARK   56  A    between atoms: _176  and  _177
REMARK   57  A    between atoms: _176  and  _179
REMARK   58  A    between atoms: _179  and  _180
REMARK   59  A    between atoms: _185  and  _187
REMARK   60  A    between atoms: _187  and  _188
REMARK   61  A    between atoms: _187  and  _190
REMARK   62  A    between atoms: _190  and  _191
REMARK   63  A    between atoms: _191  and  _192
REMARK   64  A    between atoms: _195  and  _197
REMARK   65  A    between atoms: _197  and  _198
REMARK   66  A    between atoms: _197  and  _200
REMARK   67  A    between atoms: _200  and  _201
REMARK   68  A    between atoms: _204  and  _206
REMARK   69  A    between atoms: _206  and  _207
REMARK   70  A    between atoms: _206  and  _209
REMARK   71  A    between atoms: _209  and  _210
REMARK   72  A    between atoms: _211  and  ZN_454
REMARK   73  A    between atoms: _215  and  _217
REMARK   74  A    between atoms: _217  and  _218
REMARK   75  A    between atoms: _217  and  _220
REMARK   76  A    between atoms: _220  and  _221
REMARK   77  A    between atoms: _224  and  _226
REMARK   78  A    between atoms: _226  and  _227
REMARK   79  A    between atoms: _226  and  _229
REMARK   80  A    between atoms: _232  and  _234
REMARK   81  A    between atoms: _234  and  _235
REMARK   82  A    between atoms: _234  and  _237
REMARK   83  A    between atoms: _237  and  _238
REMARK   84  A    between atoms: _243  and  _245
REMARK   85  A    between atoms: _245  and  _246
REMARK   86  A    between atoms: _245  and  _248
REMARK   87  A    between atoms: _248  and  _249
REMARK   88  A    between atoms: _255  and  _257
REMARK   89  A    between atoms: _257  and  _258
REMARK   90  A    between atoms: _260  and  _262
REMARK   91  A    between atoms: _262  and  _263
REMARK   92  A    between atoms: _266  and  _268
REMARK   93  A    between atoms: _268  and  _269
REMARK   94  A    between atoms: _268  and  _271
REMARK   95  A    between atoms: _274  and  _276
REMARK   96  A    between atoms: _276  and  _277
REMARK   97  A    between atoms: _276  and  _279
REMARK   98  A    between atoms: _279  and  _280
REMARK   99  A    between atoms: _280  and  _281
REMARK  100  A    between atoms: _286  and  _288
REMARK  101  A    between atoms: _288  and  _289
REMARK  102  A    between atoms: _288  and  _291
REMARK  103  A    between atoms: _291  and  _292
REMARK  104  A    between atoms: _295  and  _297
REMARK  105  A    between atoms: _297  and  _298
REMARK  106  A    between atoms: _301  and  _303
REMARK  107  A    between atoms: _303  and  _304
REMARK  108  A    between atoms: _303  and  _306
REMARK  109  A    between atoms: _309  and  _311
REMARK  110  A    between atoms: _311  and  _312
REMARK  111  A    between atoms: _311  and  _314
REMARK  112  A    between atoms: _314  and  _315
REMARK  113  A    between atoms: _318  and  _320
REMARK  114  A    between atoms: _320  and  _321
REMARK  115  A    between atoms: _323  and  _325
REMARK  116  A    between atoms: _325  and  _326
REMARK  117  A    between atoms: _328  and  _330
REMARK  118  A    between atoms: _330  and  _331
REMARK  119  A    between atoms: _330  and  _333
REMARK  120  A    between atoms: _333  and  _334
REMARK  121  A    between atoms: _336  and  _338
REMARK  122  A    between atoms: _338  and  _339
REMARK  123  A    between atoms: _338  and  _341
REMARK  124  A    between atoms: _341  and  _342
REMARK  125  A    between atoms: _345  and  _347
REMARK  126  A    between atoms: _347  and  _348
REMARK  127  A    between atoms: _347  and  _350
REMARK  128  A    between atoms: _350  and  _351
REMARK  129  A    between atoms: _354  and  _356
REMARK  130  A    between atoms: _356  and  _357
REMARK  131  A    between atoms: _356  and  _359
REMARK  132  A    between atoms: _359  and  _360
REMARK  133  A    between atoms: _364  and  _365
REMARK  134  A    between atoms: _371  and  _372
REMARK  135  A    between atoms: _377  and  _379
REMARK  136  A    between atoms: _379  and  _380
REMARK  137  A    between atoms: _379  and  _382
REMARK  138  A    between atoms: _382  and  _383
REMARK  139  A    between atoms: _386  and  _388
REMARK  140  A    between atoms: _388  and  _389
REMARK  141  A    between atoms: _388  and  _391
REMARK  142  A    between atoms: _391  and  _392
REMARK  143  A    between atoms: _395  and  _397
REMARK  144  A    between atoms: _397  and  _398
REMARK  145  A    between atoms: _397  and  _400
REMARK  146  A    between atoms: _402  and  _404
REMARK  147  A    between atoms: _404  and  _405
REMARK  148  A    between atoms: _404  and  _407
REMARK  149  A    between atoms: _410  and  _412
REMARK  150  A    between atoms: _412  and  _413
REMARK  151  A    between atoms: _412  and  _415
REMARK  152  A    between atoms: _415  and  _416
REMARK  153  A    between atoms: _426  and  _428
REMARK  154  A    between atoms: _428  and  _429
REMARK  155  A    between atoms: _428  and  _431
REMARK  156  A    between atoms: _431  and  _432
REMARK  157  A    between atoms: _437  and  _439
REMARK  158  A    between atoms: _439  and  _440
REMARK  159  A    between atoms: _439  and  _442
REMARK  160  A    between atoms: _442  and  _443
REMARK  161  A    between atoms: _443  and  _444
REMARK  162  A    between atoms: _444  and  _445
REMARK                            x       y       z     vdW  Elec       q    Type
REMARK                         _______ _______ _______ _____ _____    ______ ____
ROOT
ATOM      1  C   SER A   1      18.974  -4.033  23.237  0.00  0.00    +0.244 C 
ATOM      2  N   PRO A   2      18.294  -5.169  22.984  0.00  0.00    -0.273 N 
ATOM      3  CA  PRO A   2      17.119  -5.731  23.656  0.00  0.00    +0.140 C 
ATOM      4  CB  PRO A   2      16.637  -6.763  22.645  0.00  0.00    +0.030 C 
ATOM      5  CG  PRO A   2      17.984  -7.339  22.126  0.00  0.00    +0.024 C 
ATOM      6  CD  PRO A   2      18.831  -6.093  21.962  0.00  0.00    +0.094 C 
ATOM      7  O   SER A   1      19.930  -3.708  22.564  0.00  0.00    -0.273 OA
ENDROOT
BRANCH   3   8
ATOM      8  C   PRO A   2      17.547  -6.373  24.957  0.00  0.00    +0.227 C 
ATOM      9  O   PRO A   2      18.761  -6.379  25.323  0.00  0.00    -0.286 OA
ENDBRANCH   3   8
BRANCH   1  10
ATOM     10  CA  SER A   1      18.480  -3.096  24.366  0.00  0.00    +0.175 C 
BRANCH  10  11
ATOM     11  N   SER A   1      19.533  -2.211  24.848  0.00  0.00    -0.236 NA
ATOM     12  H   SER A   1      19.983  -1.565  24.168  0.00  0.00    +0.142 HD
ENDBRANCH  10  11
BRANCH  10  13
ATOM     13  CB  SER A   1      17.297  -2.289  23.839  0.00  0.00    +0.163 C 
BRANCH  13  14
ATOM     14  OG  SER A   1      16.718  -1.603  24.938  0.00  0.00    -0.380 OA
ATOM     15  H   SER A   1      16.413  -2.261  25.613  0.00  0.00    +0.211 HD
ENDBRANCH  13  14
ENDBRANCH  10  13
ENDBRANCH   1  10
TORSDOF 5
REMARK  Name = ../refined-set-2016/3ryx/3ryx_pocket.pdb
REMARK  162 active torsions:
REMARK  status: ('A' for Active; 'I' for Inactive)
REMARK    1  A    between atoms: _1  and  _3
REMARK    2  A    between atoms: _3  and  _4
REMARK    3  A    between atoms: _3  and  _6
REMARK    4  A    between atoms: _6  and  _7
REMARK    5  A    between atoms: _17  and  _19
REMARK    6  A    between atoms: _19  and  _20
REMARK    7  A    between atoms: _19  and  _22
REMARK    8  A    between atoms: _22  and  _23
REMARK    9  A    between atoms: _28  and  _29
REMARK   10  A    between atoms: _31  and  _33
REMARK   11  A    between atoms: _33  and  _34
REMARK   12  A    between atoms: _33  and  _36
REMARK   13  A    between atoms: _36  and  _37
REMARK   14  A    between atoms: _43  and  _45
REMARK   15  A    between atoms: _45  and  _46
REMARK   16  A    between atoms: _45  and  _48
REMARK   17  A    between atoms: _48  and  _49
REMARK   18  A    between atoms: _52  and  _53
REMARK   19  A    between atoms: _58  and  _60
REMARK   20  A    between atoms: _60  and  _61
REMARK   21  A    between atoms: _60  and  _63
REMARK   22  A    between atoms: _63  and  _64
REMARK   23  A    between atoms: _69  and  _71
REMARK   24  A    between atoms: _71  and  _72
REMARK   25  A    between atoms: _71  and  _74
REMARK   26  A    between atoms: _74  and  _75
REMARK   27  A    between atoms: _80  and  _82
REMARK   28  A    between atoms: _82  and  _83
REMARK   29  A    between atoms: _86  and  _88
REMARK   30  A    between atoms: _88  and  _89
REMARK   31  A    between atoms: _88  and  _91
REMARK   32  A    between atoms: _91  and  _92
REMARK   33  A    between atoms: _97  and  _99
REMARK   34  A    between atoms: _99  and  _100
REMARK   35  A    between atoms: _99  and  _102
REMARK   36  A    between atoms: _102  and  _103
REMARK   37  A    between atoms: _106  and  _108
REMARK   38  A    between atoms: _108  and  _109
REMARK   39  A    between atoms: _108  and  _111
REMARK   40  A    between atoms: _111  and  _112
REMARK   41  A    between atoms: _112  and  _113
REMARK   42  A    between atoms: _118  and  _120
REMARK   43  A    between atoms: _120  and  _121
REMARK   44  A    between atoms: _120  and  _123
REMARK   45  A    between atoms: _123  and  _124
REMARK   46  A    between atoms: _130  and  _132
REMARK   47  A    between atoms: _143  and  _146
REMARK   48  A    between atoms: _146  and  _147
REMARK   49  A    between atoms: _155  and  _156
REMARK   50  A    between atoms: _164  and  _166
REMARK   51  A    between atoms: _166  and  _167
REMARK   52  A    between atoms: _166  and  _169
REMARK   53  A    between atoms: _169  and  _170
REMARK   54  A    between atoms: _170  and  _171
REMARK   55  A    between atoms: _174  and  _176
REMARK   56  A    between atoms: _176  and  _177
REMARK   57  A    between atoms: _176  and  _179
REMARK   58  A    between atoms: _179  and  _180
REMARK   59  A    between atoms: _185  and  _187
REMARK   60  A    between atoms: _187  and  _188
REMARK   61  A    between atoms: _187  and  _190
REMARK   62  A    between atoms: _190  and  _191
REMARK   63  A    between atoms: _191  and  _192
REMARK   64  A    between atoms: _195  and  _197
REMARK   65  A    between atoms: _197  and  _198
REMARK   66  A    between atoms: _197  and  _200
REMARK   67  A    between atoms: _200  and  _201
REMARK   68  A    between atoms: _204  and  _206
REMARK   69  A    between atoms: _206  and  _207
REMARK   70  A    between atoms: _206  and  _209
REMARK   71  A    between atoms: _209  and  _210
REMARK   72  A    between atoms: _211  and  ZN_454
REMARK   73  A    between atoms: _215  and  _217
REMARK   74  A    between atoms: _217  and  _218
REMARK   75  A    between atoms: _217  and  _220
REMARK   76  A    between atoms: _220  and  _221
REMARK   77  A    between atoms: _224  and  _226
REMARK   78  A    between atoms: _226  and  _227
REMARK   79  A    between atoms: _226  and  _229
REMARK   80  A    between atoms: _232  and  _234
REMARK   81  A    between atoms: _234  and  _235
REMARK   82  A    between atoms: _234  and  _237
REMARK   83  A    between atoms: _237  and  _238
REMARK   84  A    between atoms: _243  and  _245
REMARK   85  A    between atoms: _245  and  _246
REMARK   86  A    between atoms: _245  and  _248
REMARK   87  A    between atoms: _248  and  _249
REMARK   88  A    between atoms: _255  and  _257
REMARK   89  A    between atoms: _257  and  _258
REMARK   90  A    between atoms: _260  and  _262
REMARK   91  A    between atoms: _262  and  _263
REMARK   92  A    between atoms: _266  and  _268
REMARK   93  A    between atoms: _268  and  _269
REMARK   94  A    between atoms: _268  and  _271
REMARK   95  A    between atoms: _274  and  _276
REMARK   96  A    between atoms: _276  and  _277
REMARK   97  A    between atoms: _276  and  _279
REMARK   98  A    between atoms: _279  and  _280
REMARK   99  A    between atoms: _280  and  _281
REMARK  100  A    between atoms: _286  and  _288
REMARK  101  A    between atoms: _288  and  _289
REMARK  102  A    between atoms: _288  and  _291
REMARK  103  A    between atoms: _291  and  _292
REMARK  104  A    between atoms: _295  and  _297
REMARK  105  A    between atoms: _297  and  _298
REMARK  106  A    between atoms: _301  and  _303
REMARK  107  A    between atoms: _303  and  _304
REMARK  108  A    between atoms: _303  and  _306
REMARK  109  A    between atoms: _309  and  _311
REMARK  110  A    between atoms: _311  and  _312
REMARK  111  A    between atoms: _311  and  _314
REMARK  112  A    between atoms: _314  and  _315
REMARK  113  A    between atoms: _318  and  _320
REMARK  114  A    between atoms: _320  and  _321
REMARK  115  A    between atoms: _323  and  _325
REMARK  116  A    between atoms: _325  and  _326
REMARK  117  A    between atoms: _328  and  _330
REMARK  118  A    between atoms: _330  and  _331
REMARK  119  A    between atoms: _330  and  _333
REMARK  120  A    between atoms: _333  and  _334
REMARK  121  A    between atoms: _336  and  _338
REMARK  122  A    between atoms: _338  and  _339
REMARK  123  A    between atoms: _338  and  _341
REMARK  124  A    between atoms: _341  and  _342
REMARK  125  A    between atoms: _345  and  _347
REMARK  126  A    between atoms: _347  and  _348
REMARK  127  A    between atoms: _347  and  _350
REMARK  128  A    between atoms: _350  and  _351
REMARK  129  A    between atoms: _354  and  _356
REMARK  130  A    between atoms: _356  and  _357
REMARK  131  A    between atoms: _356  and  _359
REMARK  132  A    between atoms: _359  and  _360
REMARK  133  A    between atoms: _364  and  _365
REMARK  134  A    between atoms: _371  and  _372
REMARK  135  A    between atoms: _377  and  _379
REMARK  136  A    between atoms: _379  and  _380
REMARK  137  A    between atoms: _379  and  _382
REMARK  138  A    between atoms: _382  and  _383
REMARK  139  A    between atoms: _386  and  _388
REMARK  140  A    between atoms: _388  and  _389
REMARK  141  A    between atoms: _388  and  _391
REMARK  142  A    between atoms: _391  and  _392
REMARK  143  A    between atoms: _395  and  _397
REMARK  144  A    between atoms: _397  and  _398
REMARK  145  A    between atoms: _397  and  _400
REMARK  146  A    between atoms: _402  and  _404
REMARK  147  A    between atoms: _404  and  _405
REMARK  148  A    between atoms: _404  and  _407
REMARK  149  A    between atoms: _410  and  _412
REMARK  150  A    between atoms: _412  and  _413
REMARK  151  A    between atoms: _412  and  _415
REMARK  152  A    between atoms: _415  and  _416
REMARK  153  A    between atoms: _426  and  _428
REMARK  154  A    between atoms: _428  and  _429
REMARK  155  A    between atoms: _428  and  _431
REMARK  156  A    between atoms: _431  and  _432
REMARK  157  A    between atoms: _437  and  _439
REMARK  158  A    between atoms: _439  and  _440
REMARK  159  A    between atoms: _439  and  _442
REMARK  160  A    between atoms: _442  and  _443
REMARK  161  A    between atoms: _443  and  _444
REMARK  162  A    between atoms: _444  and  _445
REMARK                            x       y       z     vdW  Elec       q    Type
REMARK                         _______ _______ _______ _____ _____    ______ ____
ROOT
ATOM      1  CB  ASN A   1      18.651   1.095   5.337  0.00  0.00    +0.110 C 
ENDROOT
BRANCH   1   2
ATOM      2  CG  ASN A   1      18.275   0.266   6.565  0.00  0.00    +0.221 C 
ATOM      3  ND2 ASN A   1      17.520   0.864   7.483  0.00  0.00    -0.329 N 
ATOM      4 HD21 ASN A   1      17.153   0.320   8.289  0.00  0.00    +0.145 HD
ATOM      5 HD22 ASN A   1      17.297   1.876   7.394  0.00  0.00    +0.145 HD
ATOM      6  OD1 ASN A   1      18.563  -0.911   6.624  0.00  0.00    -0.275 OA
ENDBRANCH   1   2
BRANCH   1   7
ATOM      7  CA  ASN A   1      18.982   0.221   4.105  0.00  0.00    +0.142 C 
BRANCH   7   8
ATOM      8  N   ASN A   1      17.835  -0.607   3.674  0.00  0.00    -0.239 NA
ATOM      9  H   ASN A   1      17.284  -1.137   4.380  0.00  0.00    +0.142 HD
ENDBRANCH   7   8
BRANCH   7  10
ATOM     10  C   ASN A   1      20.247  -0.597   4.369  0.00  0.00    +0.225 C 
ATOM     11  O   ASN A   1      21.245  -0.055   4.924  0.00  0.00    -0.287 OA
ENDBRANCH   7  10
ENDBRANCH   1   7
TORSDOF 4
REMARK  Name = ../refined-set-2016/3ryx/3ryx_pocket.pdb
REMARK  162 active torsions:
REMARK  status: ('A' for Active; 'I' for Inactive)
REMARK    1  A    between atoms: _1  and  _3
REMARK    2  A    between atoms: _3  and  _4
REMARK    3  A    between atoms: _3  and  _6
REMARK    4  A    between atoms: _6  and  _7
REMARK    5  A    between atoms: _17  and  _19
REMARK    6  A    between atoms: _19  and  _20
REMARK    7  A    between atoms: _19  and  _22
REMARK    8  A    between atoms: _22  and  _23
REMARK    9  A    between atoms: _28  and  _29
REMARK   10  A    between atoms: _31  and  _33
REMARK   11  A    between atoms: _33  and  _34
REMARK   12  A    between atoms: _33  and  _36
REMARK   13  A    between atoms: _36  and  _37
REMARK   14  A    between atoms: _43  and  _45
REMARK   15  A    between atoms: _45  and  _46
REMARK   16  A    between atoms: _45  and  _48
REMARK   17  A    between atoms: _48  and  _49
REMARK   18  A    between atoms: _52  and  _53
REMARK   19  A    between atoms: _58  and  _60
REMARK   20  A    between atoms: _60  and  _61
REMARK   21  A    between atoms: _60  and  _63
REMARK   22  A    between atoms: _63  and  _64
REMARK   23  A    between atoms: _69  and  _71
REMARK   24  A    between atoms: _71  and  _72
REMARK   25  A    between atoms: _71  and  _74
REMARK   26  A    between atoms: _74  and  _75
REMARK   27  A    between atoms: _80  and  _82
REMARK   28  A    between atoms: _82  and  _83
REMARK   29  A    between atoms: _86  and  _88
REMARK   30  A    between atoms: _88  and  _89
REMARK   31  A    between atoms: _88  and  _91
REMARK   32  A    between atoms: _91  and  _92
REMARK   33  A    between atoms: _97  and  _99
REMARK   34  A    between atoms: _99  and  _100
REMARK   35  A    between atoms: _99  and  _102
REMARK   36  A    between atoms: _102  and  _103
REMARK   37  A    between atoms: _106  and  _108
REMARK   38  A    between atoms: _108  and  _109
REMARK   39  A    between atoms: _108  and  _111
REMARK   40  A    between atoms: _111  and  _112
REMARK   41  A    between atoms: _112  and  _113
REMARK   42  A    between atoms: _118  and  _120
REMARK   43  A    between atoms: _120  and  _121
REMARK   44  A    between atoms: _120  and  _123
REMARK   45  A    between atoms: _123  and  _124
REMARK   46  A    between atoms: _130  and  _132
REMARK   47  A    between atoms: _143  and  _146
REMARK   48  A    between atoms: _146  and  _147
REMARK   49  A    between atoms: _155  and  _156
REMARK   50  A    between atoms: _164  and  _166
REMARK   51  A    between atoms: _166  and  _167
REMARK   52  A    between atoms: _166  and  _169
REMARK   53  A    between atoms: _169  and  _170
REMARK   54  A    between atoms: _170  and  _171
REMARK   55  A    between atoms: _174  and  _176
REMARK   56  A    between atoms: _176  and  _177
REMARK   57  A    between atoms: _176  and  _179
REMARK   58  A    between atoms: _179  and  _180
REMARK   59  A    between atoms: _185  and  _187
REMARK   60  A    between atoms: _187  and  _188
REMARK   61  A    between atoms: _187  and  _190
REMARK   62  A    between atoms: _190  and  _191
REMARK   63  A    between atoms: _191  and  _192
REMARK   64  A    between atoms: _195  and  _197
REMARK   65  A    between atoms: _197  and  _198
REMARK   66  A    between atoms: _197  and  _200
REMARK   67  A    between atoms: _200  and  _201
REMARK   68  A    between atoms: _204  and  _206
REMARK   69  A    between atoms: _206  and  _207
REMARK   70  A    between atoms: _206  and  _209
REMARK   71  A    between atoms: _209  and  _210
REMARK   72  A    between atoms: _211  and  ZN_454
REMARK   73  A    between atoms: _215  and  _217
REMARK   74  A    between atoms: _217  and  _218
REMARK   75  A    between atoms: _217  and  _220
REMARK   76  A    between atoms: _220  and  _221
REMARK   77  A    between atoms: _224  and  _226
REMARK   78  A    between atoms: _226  and  _227
REMARK   79  A    between atoms: _226  and  _229
REMARK   80  A    between atoms: _232  and  _234
REMARK   81  A    between atoms: _234  and  _235
REMARK   82  A    between atoms: _234  and  _237
REMARK   83  A    between atoms: _237  and  _238
REMARK   84  A    between atoms: _243  and  _245
REMARK   85  A    between atoms: _245  and  _246
REMARK   86  A    between atoms: _245  and  _248
REMARK   87  A    between atoms: _248  and  _249
REMARK   88  A    between atoms: _255  and  _257
REMARK   89  A    between atoms: _257  and  _258
REMARK   90  A    between atoms: _260  and  _262
REMARK   91  A    between atoms: _262  and  _263
REMARK   92  A    between atoms: _266  and  _268
REMARK   93  A    between atoms: _268  and  _269
REMARK   94  A    between atoms: _268  and  _271
REMARK   95  A    between atoms: _274  and  _276
REMARK   96  A    between atoms: _276  and  _277
REMARK   97  A    between atoms: _276  and  _279
REMARK   98  A    between atoms: _279  and  _280
REMARK   99  A    between atoms: _280  and  _281
REMARK  100  A    between atoms: _286  and  _288
REMARK  101  A    between atoms: _288  and  _289
REMARK  102  A    between atoms: _288  and  _291
REMARK  103  A    between atoms: _291  and  _292
REMARK  104  A    between atoms: _295  and  _297
REMARK  105  A    between atoms: _297  and  _298
REMARK  106  A    between atoms: _301  and  _303
REMARK  107  A    between atoms: _303  and  _304
REMARK  108  A    between atoms: _303  and  _306
REMARK  109  A    between atoms: _309  and  _311
REMARK  110  A    between atoms: _311  and  _312
REMARK  111  A    between atoms: _311  and  _314
REMARK  112  A    between atoms: _314  and  _315
REMARK  113  A    between atoms: _318  and  _320
REMARK  114  A    between atoms: _320  and  _321
REMARK  115  A    between atoms: _323  and  _325
REMARK  116  A    between atoms: _325  and  _326
REMARK  117  A    between atoms: _328  and  _330
REMARK  118  A    between atoms: _330  and  _331
REMARK  119  A    between atoms: _330  and  _333
REMARK  120  A    between atoms: _333  and  _334
REMARK  121  A    between atoms: _336  and  _338
REMARK  122  A    between atoms: _338  and  _339
REMARK  123  A    between atoms: _338  and  _341
REMARK  124  A    between atoms: _341  and  _342
REMARK  125  A    between atoms: _345  and  _347
REMARK  126  A    between atoms: _347  and  _348
REMARK  127  A    between atoms: _347  and  _350
REMARK  128  A    between atoms: _350  and  _351
REMARK  129  A    between atoms: _354  and  _356
REMARK  130  A    between atoms: _356  and  _357
REMARK  131  A    between atoms: _356  and  _359
REMARK  132  A    between atoms: _359  and  _360
REMARK  133  A    between atoms: _364  and  _365
REMARK  134  A    between atoms: _371  and  _372
REMARK  135  A    between atoms: _377  and  _379
REMARK  136  A    between atoms: _379  and  _380
REMARK  137  A    between atoms: _379  and  _382
REMARK  138  A    between atoms: _382  and  _383
REMARK  139  A    between atoms: _386  and  _388
REMARK  140  A    between atoms: _388  and  _389
REMARK  141  A    between atoms: _388  and  _391
REMARK  142  A    between atoms: _391  and  _392
REMARK  143  A    between atoms: _395  and  _397
REMARK  144  A    between atoms: _397  and  _398
REMARK  145  A    between atoms: _397  and  _400
REMARK  146  A    between atoms: _402  and  _404
REMARK  147  A    between atoms: _404  and  _405
REMARK  148  A    between atoms: _404  and  _407
REMARK  149  A    between atoms: _410  and  _412
REMARK  150  A    between atoms: _412  and  _413
REMARK  151  A    between atoms: _412  and  _415
REMARK  152  A    between atoms: _415  and  _416
REMARK  153  A    between atoms: _426  and  _428
REMARK  154  A    between atoms: _428  and  _429
REMARK  155  A    between atoms: _428  and  _431
REMARK  156  A    between atoms: _431  and  _432
REMARK  157  A    between atoms: _437  and  _439
REMARK  158  A    between atoms: _439  and  _440
REMARK  159  A    between atoms: _439  and  _442
REMARK  160  A    between atoms: _442  and  _443
REMARK  161  A    between atoms: _443  and  _444
REMARK  162  A    between atoms: _444  and  _445
REMARK                            x       y       z     vdW  Elec       q    Type
REMARK                         _______ _______ _______ _____ _____    ______ ____
ROOT
ATOM      1  CA  HIS A   1      20.434  -3.869   7.607  0.00  0.00    +0.151 C 
ENDROOT
BRANCH   1   2
ATOM      2  C   HIS A   1      19.048  -4.393   7.848  0.00  0.00    +0.239 C 
ATOM      3  O   HIS A   1      18.913  -5.506   8.418  0.00  0.00    -0.274 OA
ATOM      4  N   ALA A   2      18.042  -3.688   7.341  0.00  0.00    -0.298 N 
ATOM      5  H   ALA A   2      18.248  -2.769   6.901  0.00  0.00    +0.150 HD
BRANCH   4   6
ATOM      6  CA  ALA A   2      16.656  -4.154   7.378  0.00  0.00    +0.137 C 
ATOM      7  CB  ALA A   2      15.970  -3.881   8.744  0.00  0.00    +0.030 C 
BRANCH   6   8
ATOM      8  C   ALA A   2      15.928  -3.448   6.233  0.00  0.00    +0.227 C 
ATOM      9  O   ALA A   2      16.578  -2.726   5.438  0.00  0.00    -0.286 OA
ENDBRANCH   6   8
ENDBRANCH   4   6
ENDBRANCH   1   2
BRANCH   1  10
ATOM     10  N   HIS A   1      20.531  -3.081   6.388  0.00  0.00    -0.238 NA
ATOM     11  H   HIS A   1      19.904  -2.264   6.244  0.00  0.00    +0.142 HD
ENDBRANCH   1  10
BRANCH   1  12
ATOM     12  CB  HIS A   1      21.006  -3.191   8.857  0.00  0.00    +0.074 C 
BRANCH  12  13
ATOM     13  CG  HIS A   1      20.619  -1.761   9.047  0.00  0.00    +0.082 A 
ATOM     14  ND1 HIS A   1      19.563  -1.369   9.846  0.00  0.00    -0.227 NA
ATOM     15  CE1 HIS A   1      19.503  -0.050   9.874  0.00  0.00    +0.199 A 
ATOM     16  NE2 HIS A   1      20.464   0.428   9.100  0.00  0.00    -0.221 NA
ATOM     17  CD2 HIS A   1      21.186  -0.618   8.585  0.00  0.00    +0.115 A 
ENDBRANCH  12  13
ENDBRANCH   1  12
TORSDOF 6
REMARK  Name = ../refined-set-2016/3ryx/3ryx_pocket.pdb
REMARK  162 active torsions:
REMARK  status: ('A' for Active; 'I' for Inactive)
REMARK    1  A    between atoms: _1  and  _3
REMARK    2  A    between atoms: _3  and  _4
REMARK    3  A    between atoms: _3  and  _6
REMARK    4  A    between atoms: _6  and  _7
REMARK    5  A    between atoms: _17  and  _19
REMARK    6  A    between atoms: _19  and  _20
REMARK    7  A    between atoms: _19  and  _22
REMARK    8  A    between atoms: _22  and  _23
REMARK    9  A    between atoms: _28  and  _29
REMARK   10  A    between atoms: _31  and  _33
REMARK   11  A    between atoms: _33  and  _34
REMARK   12  A    between atoms: _33  and  _36
REMARK   13  A    between atoms: _36  and  _37
REMARK   14  A    between atoms: _43  and  _45
REMARK   15  A    between atoms: _45  and  _46
REMARK   16  A    between atoms: _45  and  _48
REMARK   17  A    between atoms: _48  and  _49
REMARK   18  A    between atoms: _52  and  _53
REMARK   19  A    between atoms: _58  and  _60
REMARK   20  A    between atoms: _60  and  _61
REMARK   21  A    between atoms: _60  and  _63
REMARK   22  A    between atoms: _63  and  _64
REMARK   23  A    between atoms: _69  and  _71
REMARK   24  A    between atoms: _71  and  _72
REMARK   25  A    between atoms: _71  and  _74
REMARK   26  A    between atoms: _74  and  _75
REMARK   27  A    between atoms: _80  and  _82
REMARK   28  A    between atoms: _82  and  _83
REMARK   29  A    between atoms: _86  and  _88
REMARK   30  A    between atoms: _88  and  _89
REMARK   31  A    between atoms: _88  and  _91
REMARK   32  A    between atoms: _91  and  _92
REMARK   33  A    between atoms: _97  and  _99
REMARK   34  A    between atoms: _99  and  _100
REMARK   35  A    between atoms: _99  and  _102
REMARK   36  A    between atoms: _102  and  _103
REMARK   37  A    between atoms: _106  and  _108
REMARK   38  A    between atoms: _108  and  _109
REMARK   39  A    between atoms: _108  and  _111
REMARK   40  A    between atoms: _111  and  _112
REMARK   41  A    between atoms: _112  and  _113
REMARK   42  A    between atoms: _118  and  _120
REMARK   43  A    between atoms: _120  and  _121
REMARK   44  A    between atoms: _120  and  _123
REMARK   45  A    between atoms: _123  and  _124
REMARK   46  A    between atoms: _130  and  _132
REMARK   47  A    between atoms: _143  and  _146
REMARK   48  A    between atoms: _146  and  _147
REMARK   49  A    between atoms: _155  and  _156
REMARK   50  A    between atoms: _164  and  _166
REMARK   51  A    between atoms: _166  and  _167
REMARK   52  A    between atoms: _166  and  _169
REMARK   53  A    between atoms: _169  and  _170
REMARK   54  A    between atoms: _170  and  _171
REMARK   55  A    between atoms: _174  and  _176
REMARK   56  A    between atoms: _176  and  _177
REMARK   57  A    between atoms: _176  and  _179
REMARK   58  A    between atoms: _179  and  _180
REMARK   59  A    between atoms: _185  and  _187
REMARK   60  A    between atoms: _187  and  _188
REMARK   61  A    between atoms: _187  and  _190
REMARK   62  A    between atoms: _190  and  _191
REMARK   63  A    between atoms: _191  and  _192
REMARK   64  A    between atoms: _195  and  _197
REMARK   65  A    between atoms: _197  and  _198
REMARK   66  A    between atoms: _197  and  _200
REMARK   67  A    between atoms: _200  and  _201
REMARK   68  A    between atoms: _204  and  _206
REMARK   69  A    between atoms: _206  and  _207
REMARK   70  A    between atoms: _206  and  _209
REMARK   71  A    between atoms: _209  and  _210
REMARK   72  A    between atoms: _211  and  ZN_454
REMARK   73  A    between atoms: _215  and  _217
REMARK   74  A    between atoms: _217  and  _218
REMARK   75  A    between atoms: _217  and  _220
REMARK   76  A    between atoms: _220  and  _221
REMARK   77  A    between atoms: _224  and  _226
REMARK   78  A    between atoms: _226  and  _227
REMARK   79  A    between atoms: _226  and  _229
REMARK   80  A    between atoms: _232  and  _234
REMARK   81  A    between atoms: _234  and  _235
REMARK   82  A    between atoms: _234  and  _237
REMARK   83  A    between atoms: _237  and  _238
REMARK   84  A    between atoms: _243  and  _245
REMARK   85  A    between atoms: _245  and  _246
REMARK   86  A    between atoms: _245  and  _248
REMARK   87  A    between atoms: _248  and  _249
REMARK   88  A    between atoms: _255  and  _257
REMARK   89  A    between atoms: _257  and  _258
REMARK   90  A    between atoms: _260  and  _262
REMARK   91  A    between atoms: _262  and  _263
REMARK   92  A    between atoms: _266  and  _268
REMARK   93  A    between atoms: _268  and  _269
REMARK   94  A    between atoms: _268  and  _271
REMARK   95  A    between atoms: _274  and  _276
REMARK   96  A    between atoms: _276  and  _277
REMARK   97  A    between atoms: _276  and  _279
REMARK   98  A    between atoms: _279  and  _280
REMARK   99  A    between atoms: _280  and  _281
REMARK  100  A    between atoms: _286  and  _288
REMARK  101  A    between atoms: _288  and  _289
REMARK  102  A    between atoms: _288  and  _291
REMARK  103  A    between atoms: _291  and  _292
REMARK  104  A    between atoms: _295  and  _297
REMARK  105  A    between atoms: _297  and  _298
REMARK  106  A    between atoms: _301  and  _303
REMARK  107  A    between atoms: _303  and  _304
REMARK  108  A    between atoms: _303  and  _306
REMARK  109  A    between atoms: _309  and  _311
REMARK  110  A    between atoms: _311  and  _312
REMARK  111  A    between atoms: _311  and  _314
REMARK  112  A    between atoms: _314  and  _315
REMARK  113  A    between atoms: _318  and  _320
REMARK  114  A    between atoms: _320  and  _321
REMARK  115  A    between atoms: _323  and  _325
REMARK  116  A    between atoms: _325  and  _326
REMARK  117  A    between atoms: _328  and  _330
REMARK  118  A    between atoms: _330  and  _331
REMARK  119  A    between atoms: _330  and  _333
REMARK  120  A    between atoms: _333  and  _334
REMARK  121  A    between atoms: _336  and  _338
REMARK  122  A    between atoms: _338  and  _339
REMARK  123  A    between atoms: _338  and  _341
REMARK  124  A    between atoms: _341  and  _342
REMARK  125  A    between atoms: _345  and  _347
REMARK  126  A    between atoms: _347  and  _348
REMARK  127  A    between atoms: _347  and  _350
REMARK  128  A    between atoms: _350  and  _351
REMARK  129  A    between atoms: _354  and  _356
REMARK  130  A    between atoms: _356  and  _357
REMARK  131  A    between atoms: _356  and  _359
REMARK  132  A    between atoms: _359  and  _360
REMARK  133  A    between atoms: _364  and  _365
REMARK  134  A    between atoms: _371  and  _372
REMARK  135  A    between atoms: _377  and  _379
REMARK  136  A    between atoms: _379  and  _380
REMARK  137  A    between atoms: _379  and  _382
REMARK  138  A    between atoms: _382  and  _383
REMARK  139  A    between atoms: _386  and  _388
REMARK  140  A    between atoms: _388  and  _389
REMARK  141  A    between atoms: _388  and  _391
REMARK  142  A    between atoms: _391  and  _392
REMARK  143  A    between atoms: _395  and  _397
REMARK  144  A    between atoms: _397  and  _398
REMARK  145  A    between atoms: _397  and  _400
REMARK  146  A    between atoms: _402  and  _404
REMARK  147  A    between atoms: _404  and  _405
REMARK  148  A    between atoms: _404  and  _407
REMARK  149  A    between atoms: _410  and  _412
REMARK  150  A    between atoms: _412  and  _413
REMARK  151  A    between atoms: _412  and  _415
REMARK  152  A    between atoms: _415  and  _416
REMARK  153  A    between atoms: _426  and  _428
REMARK  154  A    between atoms: _428  and  _429
REMARK  155  A    between atoms: _428  and  _431
REMARK  156  A    between atoms: _431  and  _432
REMARK  157  A    between atoms: _437  and  _439
REMARK  158  A    between atoms: _439  and  _440
REMARK  159  A    between atoms: _439  and  _442
REMARK  160  A    between atoms: _442  and  _443
REMARK  161  A    between atoms: _443  and  _444
REMARK  162  A    between atoms: _444  and  _445
REMARK                            x       y       z     vdW  Elec       q    Type
REMARK                         _______ _______ _______ _____ _____    ______ ____
ROOT
ATOM      1  CB  ASN A   1      12.797   1.760   7.061  0.00  0.00    +0.110 C 
ENDROOT
BRANCH   1   2
ATOM      2  CG  ASN A   1      13.876   1.505   8.105  0.00  0.00    +0.221 C 
ATOM      3  OD1 ASN A   1      14.027   0.370   8.631  0.00  0.00    -0.275 OA
ATOM      4  ND2 ASN A   1      14.596   2.560   8.469  0.00  0.00    -0.329 N 
ATOM      5 HD21 ASN A   1      15.316   2.466   9.214  0.00  0.00    +0.145 HD
ATOM      6 HD22 ASN A   1      14.440   3.480   8.009  0.00  0.00    +0.145 HD
ENDBRANCH   1   2
BRANCH   1   7
ATOM      7  CA  ASN A   1      12.025   0.488   6.677  0.00  0.00    +0.142 C 
BRANCH   7   8
ATOM      8  N   ASN A   1      12.855  -0.446   5.913  0.00  0.00    -0.239 NA
ATOM      9  H   ASN A   1      13.389  -0.092   5.094  0.00  0.00    +0.142 HD
ENDBRANCH   7   8
BRANCH   7  10
ATOM     10  C   ASN A   1      10.822   0.877   5.811  0.00  0.00    +0.225 C 
ATOM     11  O   ASN A   1      10.982   1.290   4.648  0.00  0.00    -0.287 OA
ENDBRANCH   7  10
ENDBRANCH   1   7
TORSDOF 4
REMARK  Name = ../refined-set-2016/3ryx/3ryx_pocket.pdb
REMARK  162 active torsions:
REMARK  status: ('A' for Active; 'I' for Inactive)
REMARK    1  A    between atoms: _1  and  _3
REMARK    2  A    between atoms: _3  and  _4
REMARK    3  A    between atoms: _3  and  _6
REMARK    4  A    between atoms: _6  and  _7
REMARK    5  A    between atoms: _17  and  _19
REMARK    6  A    between atoms: _19  and  _20
REMARK    7  A    between atoms: _19  and  _22
REMARK    8  A    between atoms: _22  and  _23
REMARK    9  A    between atoms: _28  and  _29
REMARK   10  A    between atoms: _31  and  _33
REMARK   11  A    between atoms: _33  and  _34
REMARK   12  A    between atoms: _33  and  _36
REMARK   13  A    between atoms: _36  and  _37
REMARK   14  A    between atoms: _43  and  _45
REMARK   15  A    between atoms: _45  and  _46
REMARK   16  A    between atoms: _45  and  _48
REMARK   17  A    between atoms: _48  and  _49
REMARK   18  A    between atoms: _52  and  _53
REMARK   19  A    between atoms: _58  and  _60
REMARK   20  A    between atoms: _60  and  _61
REMARK   21  A    between atoms: _60  and  _63
REMARK   22  A    between atoms: _63  and  _64
REMARK   23  A    between atoms: _69  and  _71
REMARK   24  A    between atoms: _71  and  _72
REMARK   25  A    between atoms: _71  and  _74
REMARK   26  A    between atoms: _74  and  _75
REMARK   27  A    between atoms: _80  and  _82
REMARK   28  A    between atoms: _82  and  _83
REMARK   29  A    between atoms: _86  and  _88
REMARK   30  A    between atoms: _88  and  _89
REMARK   31  A    between atoms: _88  and  _91
REMARK   32  A    between atoms: _91  and  _92
REMARK   33  A    between atoms: _97  and  _99
REMARK   34  A    between atoms: _99  and  _100
REMARK   35  A    between atoms: _99  and  _102
REMARK   36  A    between atoms: _102  and  _103
REMARK   37  A    between atoms: _106  and  _108
REMARK   38  A    between atoms: _108  and  _109
REMARK   39  A    between atoms: _108  and  _111
REMARK   40  A    between atoms: _111  and  _112
REMARK   41  A    between atoms: _112  and  _113
REMARK   42  A    between atoms: _118  and  _120
REMARK   43  A    between atoms: _120  and  _121
REMARK   44  A    between atoms: _120  and  _123
REMARK   45  A    between atoms: _123  and  _124
REMARK   46  A    between atoms: _130  and  _132
REMARK   47  A    between atoms: _143  and  _146
REMARK   48  A    between atoms: _146  and  _147
REMARK   49  A    between atoms: _155  and  _156
REMARK   50  A    between atoms: _164  and  _166
REMARK   51  A    between atoms: _166  and  _167
REMARK   52  A    between atoms: _166  and  _169
REMARK   53  A    between atoms: _169  and  _170
REMARK   54  A    between atoms: _170  and  _171
REMARK   55  A    between atoms: _174  and  _176
REMARK   56  A    between atoms: _176  and  _177
REMARK   57  A    between atoms: _176  and  _179
REMARK   58  A    between atoms: _179  and  _180
REMARK   59  A    between atoms: _185  and  _187
REMARK   60  A    between atoms: _187  and  _188
REMARK   61  A    between atoms: _187  and  _190
REMARK   62  A    between atoms: _190  and  _191
REMARK   63  A    between atoms: _191  and  _192
REMARK   64  A    between atoms: _195  and  _197
REMARK   65  A    between atoms: _197  and  _198
REMARK   66  A    between atoms: _197  and  _200
REMARK   67  A    between atoms: _200  and  _201
REMARK   68  A    between atoms: _204  and  _206
REMARK   69  A    between atoms: _206  and  _207
REMARK   70  A    between atoms: _206  and  _209
REMARK   71  A    between atoms: _209  and  _210
REMARK   72  A    between atoms: _211  and  ZN_454
REMARK   73  A    between atoms: _215  and  _217
REMARK   74  A    between atoms: _217  and  _218
REMARK   75  A    between atoms: _217  and  _220
REMARK   76  A    between atoms: _220  and  _221
REMARK   77  A    between atoms: _224  and  _226
REMARK   78  A    between atoms: _226  and  _227
REMARK   79  A    between atoms: _226  and  _229
REMARK   80  A    between atoms: _232  and  _234
REMARK   81  A    between atoms: _234  and  _235
REMARK   82  A    between atoms: _234  and  _237
REMARK   83  A    between atoms: _237  and  _238
REMARK   84  A    between atoms: _243  and  _245
REMARK   85  A    between atoms: _245  and  _246
REMARK   86  A    between atoms: _245  and  _248
REMARK   87  A    between atoms: _248  and  _249
REMARK   88  A    between atoms: _255  and  _257
REMARK   89  A    between atoms: _257  and  _258
REMARK   90  A    between atoms: _260  and  _262
REMARK   91  A    between atoms: _262  and  _263
REMARK   92  A    between atoms: _266  and  _268
REMARK   93  A    between atoms: _268  and  _269
REMARK   94  A    between atoms: _268  and  _271
REMARK   95  A    between atoms: _274  and  _276
REMARK   96  A    between atoms: _276  and  _277
REMARK   97  A    between atoms: _276  and  _279
REMARK   98  A    between atoms: _279  and  _280
REMARK   99  A    between atoms: _280  and  _281
REMARK  100  A    between atoms: _286  and  _288
REMARK  101  A    between atoms: _288  and  _289
REMARK  102  A    between atoms: _288  and  _291
REMARK  103  A    between atoms: _291  and  _292
REMARK  104  A    between atoms: _295  and  _297
REMARK  105  A    between atoms: _297  and  _298
REMARK  106  A    between atoms: _301  and  _303
REMARK  107  A    between atoms: _303  and  _304
REMARK  108  A    between atoms: _303  and  _306
REMARK  109  A    between atoms: _309  and  _311
REMARK  110  A    between atoms: _311  and  _312
REMARK  111  A    between atoms: _311  and  _314
REMARK  112  A    between atoms: _314  and  _315
REMARK  113  A    between atoms: _318  and  _320
REMARK  114  A    between atoms: _320  and  _321
REMARK  115  A    between atoms: _323  and  _325
REMARK  116  A    between atoms: _325  and  _326
REMARK  117  A    between atoms: _328  and  _330
REMARK  118  A    between atoms: _330  and  _331
REMARK  119  A    between atoms: _330  and  _333
REMARK  120  A    between atoms: _333  and  _334
REMARK  121  A    between atoms: _336  and  _338
REMARK  122  A    between atoms: _338  and  _339
REMARK  123  A    between atoms: _338  and  _341
REMARK  124  A    between atoms: _341  and  _342
REMARK  125  A    between atoms: _345  and  _347
REMARK  126  A    between atoms: _347  and  _348
REMARK  127  A    between atoms: _347  and  _350
REMARK  128  A    between atoms: _350  and  _351
REMARK  129  A    between atoms: _354  and  _356
REMARK  130  A    between atoms: _356  and  _357
REMARK  131  A    between atoms: _356  and  _359
REMARK  132  A    between atoms: _359  and  _360
REMARK  133  A    between atoms: _364  and  _365
REMARK  134  A    between atoms: _371  and  _372
REMARK  135  A    between atoms: _377  and  _379
REMARK  136  A    between atoms: _379  and  _380
REMARK  137  A    between atoms: _379  and  _382
REMARK  138  A    between atoms: _382  and  _383
REMARK  139  A    between atoms: _386  and  _388
REMARK  140  A    between atoms: _388  and  _389
REMARK  141  A    between atoms: _388  and  _391
REMARK  142  A    between atoms: _391  and  _392
REMARK  143  A    between atoms: _395  and  _397
REMARK  144  A    between atoms: _397  and  _398
REMARK  145  A    between atoms: _397  and  _400
REMARK  146  A    between atoms: _402  and  _404
REMARK  147  A    between atoms: _404  and  _405
REMARK  148  A    between atoms: _404  and  _407
REMARK  149  A    between atoms: _410  and  _412
REMARK  150  A    between atoms: _412  and  _413
REMARK  151  A    between atoms: _412  and  _415
REMARK  152  A    between atoms: _415  and  _416
REMARK  153  A    between atoms: _426  and  _428
REMARK  154  A    between atoms: _428  and  _429
REMARK  155  A    between atoms: _428  and  _431
REMARK  156  A    between atoms: _431  and  _432
REMARK  157  A    between atoms: _437  and  _439
REMARK  158  A    between atoms: _439  and  _440
REMARK  159  A    between atoms: _439  and  _442
REMARK  160  A    between atoms: _442  and  _443
REMARK  161  A    between atoms: _443  and  _444
REMARK  162  A    between atoms: _444  and  _445
REMARK                            x       y       z     vdW  Elec       q    Type
REMARK                         _______ _______ _______ _____ _____    ______ ____
ROOT
ATOM      1  C   UNK A   4      10.997  -2.361  10.331  0.00  0.00    +0.000 C 
ATOM      2  C   UNK A   4      10.893  -3.633  11.185  0.00  0.00    +0.000 C 
ATOM      3  O   UNK A   4      10.281  -3.664  12.245  0.00  0.00    +0.000 OA
ATOM      4  N   VAL A   5      11.543  -4.687  10.690  0.00  0.00    +0.000 N 
ATOM      5  CA  VAL A   5      11.614  -5.954  11.393  0.00  0.00    +0.000 C 
ATOM      6  C   VAL A   5      13.057  -6.444  11.584  0.00  0.00    +0.000 C 
ATOM      7  N   UNK A   6      13.203  -7.387  12.519  0.00  0.00    +0.000 N 
ATOM      8  H   UNK A   6      12.417  -7.551  13.181  0.00  0.00    +0.000 HD
ATOM      9  C   UNK A   6      14.412  -8.202  12.661  0.00  0.00    +0.000 C 
ATOM     10  C   UNK A   6      15.054  -7.949  14.052  0.00  0.00    +0.000 C 
ATOM     11  C   UNK A   6      15.366  -6.500  14.339  0.00  0.00    +0.000 A 
ATOM     12  C   UNK A   6      14.554  -5.449  14.679  0.00  0.00    +0.000 A 
ATOM     13  N   UNK A   6      15.342  -4.320  14.762  0.00  0.00    +0.000 N 
ATOM     14 ZN   UNK A   6      14.537  -2.544  15.379  0.00  0.00    +0.000 Zn
ATOM     15  N   UNK A   4      13.842  -1.743  13.704  0.00  0.00    +0.000 N 
ATOM     16  C   UNK A   4      13.348  -0.512  13.593  0.00  0.00    +0.000 A 
ATOM     17  N   UNK A   4      12.819  -0.381  12.374  0.00  0.00    +0.000 NA
ATOM     18  C   UNK A   4      12.995  -1.563  11.668  0.00  0.00    +0.000 A 
ATOM     19  C   UNK A   4      13.615  -2.417  12.527  0.00  0.00    +0.000 A 
ATOM     20  C   UNK A   6      16.580  -4.651  14.414  0.00  0.00    +0.000 A 
ATOM     21  N   UNK A   6      16.635  -5.963  14.184  0.00  0.00    +0.000 NA
ATOM     22  O   VAL A   5      13.994  -5.992  10.893  0.00  0.00    +0.000 OA
ATOM     23  H   VAL A   5      12.015  -4.598   9.768  0.00  0.00    +0.000 HD
ATOM     24  C   UNK A   4      12.450  -1.820  10.283  0.00  0.00    +0.000 C 
ENDROOT
BRANCH  14  25
ATOM     25  N   UNK A   6      13.120  -3.255  16.603  0.00  0.00    +0.000 N 
ATOM     26  C   UNK A   6      13.409  -4.191  17.505  0.00  0.00    +0.000 A 
ATOM     27  N   UNK A   6      12.292  -4.579  18.103  0.00  0.00    +0.000 NA
ATOM     28  C   UNK A   6      11.228  -3.889  17.565  0.00  0.00    +0.000 A 
ATOM     29  C   UNK A   6      11.742  -3.017  16.641  0.00  0.00    +0.000 A 
BRANCH  29  30
ATOM     30  C   UNK A   6      11.044  -2.014  15.786  0.00  0.00    +0.000 C 
BRANCH  30  31
ATOM     31  C   UNK A   6       9.541  -2.323  15.715  0.00  0.00    +0.000 C 
BRANCH  31  32
ATOM     32  C   UNK A   6       8.879  -1.186  15.052  0.00  0.00    +0.000 C 
ATOM     33  N   UNK A   4       7.832  -0.691  15.699  0.00  0.00    +0.000 N 
ATOM     34  H   UNK A   4       7.458  -1.175  16.540  0.00  0.00    +0.000 HD
ATOM     35  O   UNK A   6       9.243  -0.819  13.903  0.00  0.00    +0.000 OA
BRANCH  33  36
ATOM     36  C   UNK A   4       7.196   0.567  15.209  0.00  0.00    +0.000 C 
BRANCH  36  37
ATOM     37  C   UNK A   4       7.808   1.723  15.972  0.00  0.00    +0.000 C 
ATOM     38  O   UNK A   4       7.692   1.806  17.209  0.00  0.00    +0.000 OA
ATOM     39  N   VAL A   5       8.526   2.572  15.254  0.00  0.00    +0.000 N 
ATOM     40  H   VAL A   5       8.492   2.500  14.217  0.00  0.00    +0.000 HD
BRANCH  39  41
ATOM     41  CA  VAL A   5       9.369   3.612  15.861  0.00  0.00    +0.000 C 
BRANCH  41  42
ATOM     42  C   VAL A   5       8.682   4.992  15.857  0.00  0.00    +0.000 C 
ATOM     43  N   UNK A   6       8.640   5.598  17.049  0.00  0.00    +0.000 N 
ATOM     44  H   UNK A   6       9.121   5.157  17.859  0.00  0.00    +0.000 HD
ATOM     45  O   VAL A   5       8.236   5.489  14.808  0.00  0.00    +0.000 OA
BRANCH  43  46
ATOM     46  C   UNK A   6       7.937   6.862  17.241  0.00  0.00    +0.000 C 
BRANCH  46  47
ATOM     47  C   UNK A   6       8.841   7.829  17.982  0.00  0.00    +0.000 C 
ATOM     48  O   UNK A   6       9.578   7.433  18.891  0.00  0.00    +0.000 OA
ENDBRANCH  46  47
BRANCH  46  49
ATOM     49  C   UNK A   6       6.630   6.721  18.066  0.00  0.00    +0.000 C 
BRANCH  49  50
ATOM     50  C   UNK A   6       5.742   5.596  17.680  0.00  0.00    +0.000 A 
ATOM     51  N   UNK A   6       6.037   4.282  17.996  0.00  0.00    +0.000 NA
ATOM     52  C   UNK A   6       5.054   3.499  17.535  0.00  0.00    +0.000 A 
ATOM     53  N   UNK A   6       4.129   4.265  16.974  0.00  0.00    +0.000 NA
ATOM     54  C   UNK A   6       4.532   5.587  17.056  0.00  0.00    +0.000 A 
ENDBRANCH  49  50
ENDBRANCH  46  49
ENDBRANCH  43  46
ENDBRANCH  41  42
BRANCH  41  55
ATOM     55  CB  VAL A   5      10.678   3.720  15.069  0.00  0.00    +0.000 C 
ATOM     56  CG2 VAL A   5      11.649   4.791  15.708  0.00  0.00    +0.000 C 
ATOM     57  CG1 VAL A   5      11.357   2.398  14.996  0.00  0.00    +0.000 C 
ENDBRANCH  41  55
ENDBRANCH  39  41
ENDBRANCH  36  37
BRANCH  36  58
ATOM     58  C   UNK A   4       5.662   0.556  15.453  0.00  0.00    +0.000 C 
BRANCH  58  59
ATOM     59  C   UNK A   4       5.000  -0.491  14.552  0.00  0.00    +0.000 C 
ATOM     60  C   UNK A   4       4.098  -1.385  15.342  0.00  0.00    +0.000 C 
ATOM     61  C   UNK A   4       4.086   0.218  13.490  0.00  0.00    +0.000 C 
ENDBRANCH  58  59
ENDBRANCH  36  58
ENDBRANCH  33  36
ENDBRANCH  31  32
BRANCH  31  62
ATOM     62  N   UNK A   6       9.261  -3.542  14.884  0.00  0.00    +0.000 N 
ATOM     63  C   LEU A   2       8.672  -4.607  15.410  0.00  0.00    +0.000 C 
ATOM     64  O   LEU A   2       8.275  -4.661  16.614  0.00  0.00    +0.000 OA
ATOM     65  H   UNK A   6       9.533  -3.551  13.880  0.00  0.00    +0.000 HD
BRANCH  63  66
ATOM     66  CA  LEU A   2       8.416  -5.765  14.407  0.00  0.00    +0.000 C 
BRANCH  66  67
ATOM     67  N   LEU A   2       8.813  -7.037  15.045  0.00  0.00    +0.000 N 
ATOM     68  H   LEU A   2       8.094  -7.519  15.622  0.00  0.00    +0.000 HD
ATOM     69  C   GLU A   1       9.993  -7.620  14.953  0.00  0.00    +0.000 C 
ATOM     70  O   GLU A   1      10.906  -7.196  14.252  0.00  0.00    +0.000 OA
BRANCH  69  71
ATOM     71  CA  GLU A   1      10.152  -8.897  15.783  0.00  0.00    +0.000 C 
BRANCH  71  72
ATOM     72  N   GLU A   1      10.664  -9.912  14.909  0.00  0.00    +0.000 NA
ATOM     73  H   GLU A   1      11.341  -9.652  14.163  0.00  0.00    +0.000 HD
ENDBRANCH  71  72
BRANCH  71  74
ATOM     74  CB  GLU A   1      11.090  -8.717  16.953  0.00  0.00    +0.000 C 
BRANCH  74  75
ATOM     75  CG  GLU A   1      10.635  -7.673  17.960  0.00  0.00    +0.000 C 
BRANCH  75  76
ATOM     76  CD  GLU A   1      11.524  -7.641  19.218  0.00  0.00    +0.000 C 
ATOM     77  OE2 GLU A   1      11.560  -6.536  19.836  0.00  0.00    +0.000 OA
ATOM     78  OE1 GLU A   1      12.214  -8.619  19.552  0.00  0.00    +0.000 OA
ENDBRANCH  75  76
ENDBRANCH  74  75
ENDBRANCH  71  74
ENDBRANCH  69  71
ENDBRANCH  66  67
BRANCH  66  79
ATOM     79  CB  LEU A   2       6.909  -5.810  14.121  0.00  0.00    +0.000 C 
BRANCH  79  80
ATOM     80  CG  LEU A   2       6.183  -4.493  13.700  0.00  0.00    +0.000 C 
ATOM     81  CD2 LEU A   2       4.745  -4.826  13.440  0.00  0.00    +0.000 C 
ATOM     82  CD1 LEU A   2       6.817  -3.898  12.427  0.00  0.00    +0.000 C 
ENDBRANCH  79  80
ENDBRANCH  66  79
ENDBRANCH  63  66
ENDBRANCH  31  62
ENDBRANCH  30  31
ENDBRANCH  29  30
ENDBRANCH  14  25
BRANCH   1  84
ATOM     83  C   UNK A   3       9.565  -0.403  10.278  0.00  0.00    +0.000 C 
ATOM     84  N   UNK A   4      10.089  -1.413  10.969  0.00  0.00    +0.000 N 
ATOM     85  H   UNK A   4       9.849  -1.528  11.974  0.00  0.00    +0.000 HD
ATOM     86  O   UNK A   3       9.813  -0.196   9.109  0.00  0.00    +0.000 OA
BRANCH  83  87
ATOM     87  C   UNK A   3       8.653   0.486  11.077  0.00  0.00    +0.000 C 
BRANCH  87  90
ATOM     88  C   LEU A   2       8.749   2.907  11.201  0.00  0.00    +0.000 C 
ATOM     89  O   LEU A   2       8.715   2.925  12.401  0.00  0.00    +0.000 OA
ATOM     90  N   UNK A   3       8.513   1.846  10.446  0.00  0.00    +0.000 N 
ATOM     91  H   UNK A   3       8.239   1.948   9.448  0.00  0.00    +0.000 HD
BRANCH  88  92
ATOM     92  CA  LEU A   2       8.989   4.182  10.461  0.00  0.00    +0.000 C 
BRANCH  92  94
ATOM     93  C   GLU A   1       8.532   6.567  10.735  0.00  0.00    +0.000 C 
ATOM     94  N   LEU A   2       8.695   5.376  11.319  0.00  0.00    +0.000 N 
ATOM     95  H   LEU A   2       8.619   5.279  12.352  0.00  0.00    +0.000 HD
ATOM     96  O   GLU A   1       8.614   6.732   9.503  0.00  0.00    +0.000 OA
BRANCH  93  97
ATOM     97  CA  GLU A   1       8.229   7.709  11.669  0.00  0.00    +0.000 C 
BRANCH  97  98
ATOM     98  CB  GLU A   1       9.509   8.401  12.158  0.00  0.00    +0.000 C 
ATOM     99  CG2 GLU A   1      10.260   7.597  13.258  0.00  0.00    +0.000 C 
BRANCH  98 100
ATOM    100  CG1 GLU A   1      10.444   8.725  10.995  0.00  0.00    +0.000 C 
ATOM    101  CD1 GLU A   1      11.654   9.613  11.367  0.00  0.00    +0.000 C 
ENDBRANCH  98 100
ENDBRANCH  97  98
BRANCH  97 102
ATOM    102  N   GLU A   1       7.334   7.318  12.815  0.00  0.00    +0.000 NA
ATOM    103  H   GLU A   1       7.694   6.684  13.556  0.00  0.00    +0.000 HD
ENDBRANCH  97 102
ENDBRANCH  93  97
ENDBRANCH  92  94
BRANCH  92 104
ATOM    104  CB  LEU A   2      10.434   4.172   9.896  0.00  0.00    +0.000 C 
BRANCH 104 105
ATOM    105  CG  LEU A   2      11.505   4.269  10.986  0.00  0.00    +0.000 C 
BRANCH 105 106
ATOM    106  CD  LEU A   2      12.222   2.973  11.324  0.00  0.00    +0.000 C 
ATOM    107  NE2 LEU A   2      13.488   3.127  11.846  0.00  0.00    +0.000 N 
ATOM    108 HE21 LEU A   2      14.037   2.292  12.135  0.00  0.00    +0.000 HD
ATOM    109 HE22 LEU A   2      13.895   4.078  11.951  0.00  0.00    +0.000 HD
ATOM    110  OE1 LEU A   2      11.672   1.869  11.169  0.00  0.00    +0.000 OA
ENDBRANCH 105 106
ENDBRANCH 104 105
ENDBRANCH  92 104
ENDBRANCH  88  92
ENDBRANCH  87  90
BRANCH  87 111
ATOM    111  C   UNK A   3       7.314  -0.252  11.384  0.00  0.00    +0.000 C 
BRANCH 111 112
ATOM    112  C   UNK A   3       6.557  -0.692  10.152  0.00  0.00    +0.000 A 
ATOM    113  C   UNK A   3       5.443   0.032   9.721  0.00  0.00    +0.000 A 
ATOM    114  C   UNK A   3       4.691  -0.445   8.588  0.00  0.00    +0.000 A 
ATOM    115  C   UNK A   3       5.073  -1.557   7.885  0.00  0.00    +0.000 A 
ATOM    116  C   UNK A   3       6.216  -2.293   8.322  0.00  0.00    +0.000 A 
ATOM    117  C   UNK A   3       6.914  -1.863   9.434  0.00  0.00    +0.000 A 
ENDBRANCH 111 112
ENDBRANCH  87 111
ENDBRANCH  83  87
ENDBRANCH   1  84
BRANCH   9 118
ATOM    118  C   UNK A   6      13.968  -9.648  12.557  0.00  0.00    +0.000 C 
ATOM    119  O   UNK A   6      12.911  -9.987  13.033  0.00  0.00    +0.000 OA
ENDBRANCH   9 118
BRANCH   5 120
ATOM    120  CB  VAL A   5      10.921  -7.055  10.588  0.00  0.00    +0.000 C 
BRANCH 120 121
ATOM    121  CG  VAL A   5       9.461  -6.768  10.282  0.00  0.00    +0.000 A 
ATOM    122  CD2 VAL A   5       8.424  -7.507  10.949  0.00  0.00    +0.000 A 
ATOM    123  CE2 VAL A   5       7.055  -7.228  10.565  0.00  0.00    +0.000 A 
ATOM    124  CZ  VAL A   5       6.776  -6.297   9.471  0.00  0.00    +0.000 A 
ATOM    125  CE1 VAL A   5       7.826  -5.651   8.833  0.00  0.00    +0.000 A 
ATOM    126  CD1 VAL A   5       9.130  -5.950   9.191  0.00  0.00    +0.000 A 
ENDBRANCH 120 121
ENDBRANCH   5 120
TORSDOF 42
REMARK  Name = ../refined-set-2016/3ryx/3ryx_pocket.pdb
REMARK  162 active torsions:
REMARK  status: ('A' for Active; 'I' for Inactive)
REMARK    1  A    between atoms: _1  and  _3
REMARK    2  A    between atoms: _3  and  _4
REMARK    3  A    between atoms: _3  and  _6
REMARK    4  A    between atoms: _6  and  _7
REMARK    5  A    between atoms: _17  and  _19
REMARK    6  A    between atoms: _19  and  _20
REMARK    7  A    between atoms: _19  and  _22
REMARK    8  A    between atoms: _22  and  _23
REMARK    9  A    between atoms: _28  and  _29
REMARK   10  A    between atoms: _31  and  _33
REMARK   11  A    between atoms: _33  and  _34
REMARK   12  A    between atoms: _33  and  _36
REMARK   13  A    between atoms: _36  and  _37
REMARK   14  A    between atoms: _43  and  _45
REMARK   15  A    between atoms: _45  and  _46
REMARK   16  A    between atoms: _45  and  _48
REMARK   17  A    between atoms: _48  and  _49
REMARK   18  A    between atoms: _52  and  _53
REMARK   19  A    between atoms: _58  and  _60
REMARK   20  A    between atoms: _60  and  _61
REMARK   21  A    between atoms: _60  and  _63
REMARK   22  A    between atoms: _63  and  _64
REMARK   23  A    between atoms: _69  and  _71
REMARK   24  A    between atoms: _71  and  _72
REMARK   25  A    between atoms: _71  and  _74
REMARK   26  A    between atoms: _74  and  _75
REMARK   27  A    between atoms: _80  and  _82
REMARK   28  A    between atoms: _82  and  _83
REMARK   29  A    between atoms: _86  and  _88
REMARK   30  A    between atoms: _88  and  _89
REMARK   31  A    between atoms: _88  and  _91
REMARK   32  A    between atoms: _91  and  _92
REMARK   33  A    between atoms: _97  and  _99
REMARK   34  A    between atoms: _99  and  _100
REMARK   35  A    between atoms: _99  and  _102
REMARK   36  A    between atoms: _102  and  _103
REMARK   37  A    between atoms: _106  and  _108
REMARK   38  A    between atoms: _108  and  _109
REMARK   39  A    between atoms: _108  and  _111
REMARK   40  A    between atoms: _111  and  _112
REMARK   41  A    between atoms: _112  and  _113
REMARK   42  A    between atoms: _118  and  _120
REMARK   43  A    between atoms: _120  and  _121
REMARK   44  A    between atoms: _120  and  _123
REMARK   45  A    between atoms: _123  and  _124
REMARK   46  A    between atoms: _130  and  _132
REMARK   47  A    between atoms: _143  and  _146
REMARK   48  A    between atoms: _146  and  _147
REMARK   49  A    between atoms: _155  and  _156
REMARK   50  A    between atoms: _164  and  _166
REMARK   51  A    between atoms: _166  and  _167
REMARK   52  A    between atoms: _166  and  _169
REMARK   53  A    between atoms: _169  and  _170
REMARK   54  A    between atoms: _170  and  _171
REMARK   55  A    between atoms: _174  and  _176
REMARK   56  A    between atoms: _176  and  _177
REMARK   57  A    between atoms: _176  and  _179
REMARK   58  A    between atoms: _179  and  _180
REMARK   59  A    between atoms: _185  and  _187
REMARK   60  A    between atoms: _187  and  _188
REMARK   61  A    between atoms: _187  and  _190
REMARK   62  A    between atoms: _190  and  _191
REMARK   63  A    between atoms: _191  and  _192
REMARK   64  A    between atoms: _195  and  _197
REMARK   65  A    between atoms: _197  and  _198
REMARK   66  A    between atoms: _197  and  _200
REMARK   67  A    between atoms: _200  and  _201
REMARK   68  A    between atoms: _204  and  _206
REMARK   69  A    between atoms: _206  and  _207
REMARK   70  A    between atoms: _206  and  _209
REMARK   71  A    between atoms: _209  and  _210
REMARK   72  A    between atoms: _211  and  ZN_454
REMARK   73  A    between atoms: _215  and  _217
REMARK   74  A    between atoms: _217  and  _218
REMARK   75  A    between atoms: _217  and  _220
REMARK   76  A    between atoms: _220  and  _221
REMARK   77  A    between atoms: _224  and  _226
REMARK   78  A    between atoms: _226  and  _227
REMARK   79  A    between atoms: _226  and  _229
REMARK   80  A    between atoms: _232  and  _234
REMARK   81  A    between atoms: _234  and  _235
REMARK   82  A    between atoms: _234  and  _237
REMARK   83  A    between atoms: _237  and  _238
REMARK   84  A    between atoms: _243  and  _245
REMARK   85  A    between atoms: _245  and  _246
REMARK   86  A    between atoms: _245  and  _248
REMARK   87  A    between atoms: _248  and  _249
REMARK   88  A    between atoms: _255  and  _257
REMARK   89  A    between atoms: _257  and  _258
REMARK   90  A    between atoms: _260  and  _262
REMARK   91  A    between atoms: _262  and  _263
REMARK   92  A    between atoms: _266  and  _268
REMARK   93  A    between atoms: _268  and  _269
REMARK   94  A    between atoms: _268  and  _271
REMARK   95  A    between atoms: _274  and  _276
REMARK   96  A    between atoms: _276  and  _277
REMARK   97  A    between atoms: _276  and  _279
REMARK   98  A    between atoms: _279  and  _280
REMARK   99  A    between atoms: _280  and  _281
REMARK  100  A    between atoms: _286  and  _288
REMARK  101  A    between atoms: _288  and  _289
REMARK  102  A    between atoms: _288  and  _291
REMARK  103  A    between atoms: _291  and  _292
REMARK  104  A    between atoms: _295  and  _297
REMARK  105  A    between atoms: _297  and  _298
REMARK  106  A    between atoms: _301  and  _303
REMARK  107  A    between atoms: _303  and  _304
REMARK  108  A    between atoms: _303  and  _306
REMARK  109  A    between atoms: _309  and  _311
REMARK  110  A    between atoms: _311  and  _312
REMARK  111  A    between atoms: _311  and  _314
REMARK  112  A    between atoms: _314  and  _315
REMARK  113  A    between atoms: _318  and  _320
REMARK  114  A    between atoms: _320  and  _321
REMARK  115  A    between atoms: _323  and  _325
REMARK  116  A    between atoms: _325  and  _326
REMARK  117  A    between atoms: _328  and  _330
REMARK  118  A    between atoms: _330  and  _331
REMARK  119  A    between atoms: _330  and  _333
REMARK  120  A    between atoms: _333  and  _334
REMARK  121  A    between atoms: _336  and  _338
REMARK  122  A    between atoms: _338  and  _339
REMARK  123  A    between atoms: _338  and  _341
REMARK  124  A    between atoms: _341  and  _342
REMARK  125  A    between atoms: _345  and  _347
REMARK  126  A    between atoms: _347  and  _348
REMARK  127  A    between atoms: _347  and  _350
REMARK  128  A    between atoms: _350  and  _351
REMARK  129  A    between atoms: _354  and  _356
REMARK  130  A    between atoms: _356  and  _357
REMARK  131  A    between atoms: _356  and  _359
REMARK  132  A    between atoms: _359  and  _360
REMARK  133  A    between atoms: _364  and  _365
REMARK  134  A    between atoms: _371  and  _372
REMARK  135  A    between atoms: _377  and  _379
REMARK  136  A    between atoms: _379  and  _380
REMARK  137  A    between atoms: _379  and  _382
REMARK  138  A    between atoms: _382  and  _383
REMARK  139  A    between atoms: _386  and  _388
REMARK  140  A    between atoms: _388  and  _389
REMARK  141  A    between atoms: _388  and  _391
REMARK  142  A    between atoms: _391  and  _392
REMARK  143  A    between atoms: _395  and  _397
REMARK  144  A    between atoms: _397  and  _398
REMARK  145  A    between atoms: _397  and  _400
REMARK  146  A    between atoms: _402  and  _404
REMARK  147  A    between atoms: _404  and  _405
REMARK  148  A    between atoms: _404  and  _407
REMARK  149  A    between atoms: _410  and  _412
REMARK  150  A    between atoms: _412  and  _413
REMARK  151  A    between atoms: _412  and  _415
REMARK  152  A    between atoms: _415  and  _416
REMARK  153  A    between atoms: _426  and  _428
REMARK  154  A    between atoms: _428  and  _429
REMARK  155  A    between atoms: _428  and  _431
REMARK  156  A    between atoms: _431  and  _432
REMARK  157  A    between atoms: _437  and  _439
REMARK  158  A    between atoms: _439  and  _440
REMARK  159  A    between atoms: _439  and  _442
REMARK  160  A    between atoms: _442  and  _443
REMARK  161  A    between atoms: _443  and  _444
REMARK  162  A    between atoms: _444  and  _445
REMARK                            x       y       z     vdW  Elec       q    Type
REMARK                         _______ _______ _______ _____ _____    ______ ____
ROOT
ATOM      1  C   GLU A   1      15.310  -9.416  21.094  0.00  0.00    +0.238 C 
ATOM      2  O   GLU A   1      16.133  -9.929  21.847  0.00  0.00    -0.274 OA
ATOM      3  N   HIS A   2      14.152  -8.939  21.541  0.00  0.00    -0.298 N 
ATOM      4  H   HIS A   2      13.583  -8.299  20.951  0.00  0.00    +0.150 HD
ENDROOT
BRANCH   1   5
ATOM      5  CA  GLU A   1      15.660  -9.240  19.600  0.00  0.00    +0.145 C 
BRANCH   5   6
ATOM      6  N   GLU A   1      14.629  -9.914  18.835  0.00  0.00    -0.238 NA
ATOM      7  H   GLU A   1      13.764  -9.386  18.600  0.00  0.00    +0.142 HD
ENDBRANCH   5   6
BRANCH   5   8
ATOM      8  CB  GLU A   1      15.633  -7.763  19.219  0.00  0.00    +0.038 C 
BRANCH   8   9
ATOM      9  CG  GLU A   1      16.129  -7.623  17.767  0.00  0.00    +0.116 C 
BRANCH   9  10
ATOM     10  CD  GLU A   1      16.885  -6.322  17.505  0.00  0.00    +0.365 C 
ATOM     11  OE2 GLU A   1      16.317  -5.247  17.751  0.00  0.00    -0.246 OA
ATOM     12  OE1 GLU A   1      18.060  -6.379  17.082  0.00  0.00    -0.246 OA
ENDBRANCH   9  10
ENDBRANCH   8   9
ENDBRANCH   5   8
ENDBRANCH   1   5
BRANCH   3  13
ATOM     13  CA  HIS A   2      13.686  -9.330  22.884  0.00  0.00    +0.143 C 
BRANCH  13  14
ATOM     14  C   HIS A   2      13.363 -10.810  22.923  0.00  0.00    +0.227 C 
ATOM     15  O   HIS A   2      13.036 -11.387  21.896  0.00  0.00    -0.286 OA
ENDBRANCH  13  14
BRANCH  13  16
ATOM     16  CB  HIS A   2      12.452  -8.506  23.232  0.00  0.00    +0.075 C 
BRANCH  16  17
ATOM     17  CG  HIS A   2      12.810  -7.083  23.404  0.00  0.00    +0.082 A 
ATOM     18  CD2 HIS A   2      13.268  -6.377  24.468  0.00  0.00    +0.115 A 
ATOM     19  NE2 HIS A   2      13.483  -5.085  24.025  0.00  0.00    -0.221 NA
ATOM     20  CE1 HIS A   2      13.195  -5.023  22.737  0.00  0.00    +0.199 A 
ATOM     21  ND1 HIS A   2      12.765  -6.210  22.350  0.00  0.00    -0.227 NA
ENDBRANCH  16  17
ENDBRANCH  13  16
ENDBRANCH   3  13
TORSDOF 9
REMARK  Name = ../refined-set-2016/3ryx/3ryx_pocket.pdb
REMARK  162 active torsions:
REMARK  status: ('A' for Active; 'I' for Inactive)
REMARK    1  A    between atoms: _1  and  _3
REMARK    2  A    between atoms: _3  and  _4
REMARK    3  A    between atoms: _3  and  _6
REMARK    4  A    between atoms: _6  and  _7
REMARK    5  A    between atoms: _17  and  _19
REMARK    6  A    between atoms: _19  and  _20
REMARK    7  A    between atoms: _19  and  _22
REMARK    8  A    between atoms: _22  and  _23
REMARK    9  A    between atoms: _28  and  _29
REMARK   10  A    between atoms: _31  and  _33
REMARK   11  A    between atoms: _33  and  _34
REMARK   12  A    between atoms: _33  and  _36
REMARK   13  A    between atoms: _36  and  _37
REMARK   14  A    between atoms: _43  and  _45
REMARK   15  A    between atoms: _45  and  _46
REMARK   16  A    between atoms: _45  and  _48
REMARK   17  A    between atoms: _48  and  _49
REMARK   18  A    between atoms: _52  and  _53
REMARK   19  A    between atoms: _58  and  _60
REMARK   20  A    between atoms: _60  and  _61
REMARK   21  A    between atoms: _60  and  _63
REMARK   22  A    between atoms: _63  and  _64
REMARK   23  A    between atoms: _69  and  _71
REMARK   24  A    between atoms: _71  and  _72
REMARK   25  A    between atoms: _71  and  _74
REMARK   26  A    between atoms: _74  and  _75
REMARK   27  A    between atoms: _80  and  _82
REMARK   28  A    between atoms: _82  and  _83
REMARK   29  A    between atoms: _86  and  _88
REMARK   30  A    between atoms: _88  and  _89
REMARK   31  A    between atoms: _88  and  _91
REMARK   32  A    between atoms: _91  and  _92
REMARK   33  A    between atoms: _97  and  _99
REMARK   34  A    between atoms: _99  and  _100
REMARK   35  A    between atoms: _99  and  _102
REMARK   36  A    between atoms: _102  and  _103
REMARK   37  A    between atoms: _106  and  _108
REMARK   38  A    between atoms: _108  and  _109
REMARK   39  A    between atoms: _108  and  _111
REMARK   40  A    between atoms: _111  and  _112
REMARK   41  A    between atoms: _112  and  _113
REMARK   42  A    between atoms: _118  and  _120
REMARK   43  A    between atoms: _120  and  _121
REMARK   44  A    between atoms: _120  and  _123
REMARK   45  A    between atoms: _123  and  _124
REMARK   46  A    between atoms: _130  and  _132
REMARK   47  A    between atoms: _143  and  _146
REMARK   48  A    between atoms: _146  and  _147
REMARK   49  A    between atoms: _155  and  _156
REMARK   50  A    between atoms: _164  and  _166
REMARK   51  A    between atoms: _166  and  _167
REMARK   52  A    between atoms: _166  and  _169
REMARK   53  A    between atoms: _169  and  _170
REMARK   54  A    between atoms: _170  and  _171
REMARK   55  A    between atoms: _174  and  _176
REMARK   56  A    between atoms: _176  and  _177
REMARK   57  A    between atoms: _176  and  _179
REMARK   58  A    between atoms: _179  and  _180
REMARK   59  A    between atoms: _185  and  _187
REMARK   60  A    between atoms: _187  and  _188
REMARK   61  A    between atoms: _187  and  _190
REMARK   62  A    between atoms: _190  and  _191
REMARK   63  A    between atoms: _191  and  _192
REMARK   64  A    between atoms: _195  and  _197
REMARK   65  A    between atoms: _197  and  _198
REMARK   66  A    between atoms: _197  and  _200
REMARK   67  A    between atoms: _200  and  _201
REMARK   68  A    between atoms: _204  and  _206
REMARK   69  A    between atoms: _206  and  _207
REMARK   70  A    between atoms: _206  and  _209
REMARK   71  A    between atoms: _209  and  _210
REMARK   72  A    between atoms: _211  and  ZN_454
REMARK   73  A    between atoms: _215  and  _217
REMARK   74  A    between atoms: _217  and  _218
REMARK   75  A    between atoms: _217  and  _220
REMARK   76  A    between atoms: _220  and  _221
REMARK   77  A    between atoms: _224  and  _226
REMARK   78  A    between atoms: _226  and  _227
REMARK   79  A    between atoms: _226  and  _229
REMARK   80  A    between atoms: _232  and  _234
REMARK   81  A    between atoms: _234  and  _235
REMARK   82  A    between atoms: _234  and  _237
REMARK   83  A    between atoms: _237  and  _238
REMARK   84  A    between atoms: _243  and  _245
REMARK   85  A    between atoms: _245  and  _246
REMARK   86  A    between atoms: _245  and  _248
REMARK   87  A    between atoms: _248  and  _249
REMARK   88  A    between atoms: _255  and  _257
REMARK   89  A    between atoms: _257  and  _258
REMARK   90  A    between atoms: _260  and  _262
REMARK   91  A    between atoms: _262  and  _263
REMARK   92  A    between atoms: _266  and  _268
REMARK   93  A    between atoms: _268  and  _269
REMARK   94  A    between atoms: _268  and  _271
REMARK   95  A    between atoms: _274  and  _276
REMARK   96  A    between atoms: _276  and  _277
REMARK   97  A    between atoms: _276  and  _279
REMARK   98  A    between atoms: _279  and  _280
REMARK   99  A    between atoms: _280  and  _281
REMARK  100  A    between atoms: _286  and  _288
REMARK  101  A    between atoms: _288  and  _289
REMARK  102  A    between atoms: _288  and  _291
REMARK  103  A    between atoms: _291  and  _292
REMARK  104  A    between atoms: _295  and  _297
REMARK  105  A    between atoms: _297  and  _298
REMARK  106  A    between atoms: _301  and  _303
REMARK  107  A    between atoms: _303  and  _304
REMARK  108  A    between atoms: _303  and  _306
REMARK  109  A    between atoms: _309  and  _311
REMARK  110  A    between atoms: _311  and  _312
REMARK  111  A    between atoms: _311  and  _314
REMARK  112  A    between atoms: _314  and  _315
REMARK  113  A    between atoms: _318  and  _320
REMARK  114  A    between atoms: _320  and  _321
REMARK  115  A    between atoms: _323  and  _325
REMARK  116  A    between atoms: _325  and  _326
REMARK  117  A    between atoms: _328  and  _330
REMARK  118  A    between atoms: _330  and  _331
REMARK  119  A    between atoms: _330  and  _333
REMARK  120  A    between atoms: _333  and  _334
REMARK  121  A    between atoms: _336  and  _338
REMARK  122  A    between atoms: _338  and  _339
REMARK  123  A    between atoms: _338  and  _341
REMARK  124  A    between atoms: _341  and  _342
REMARK  125  A    between atoms: _345  and  _347
REMARK  126  A    between atoms: _347  and  _348
REMARK  127  A    between atoms: _347  and  _350
REMARK  128  A    between atoms: _350  and  _351
REMARK  129  A    between atoms: _354  and  _356
REMARK  130  A    between atoms: _356  and  _357
REMARK  131  A    between atoms: _356  and  _359
REMARK  132  A    between atoms: _359  and  _360
REMARK  133  A    between atoms: _364  and  _365
REMARK  134  A    between atoms: _371  and  _372
REMARK  135  A    between atoms: _377  and  _379
REMARK  136  A    between atoms: _379  and  _380
REMARK  137  A    between atoms: _379  and  _382
REMARK  138  A    between atoms: _382  and  _383
REMARK  139  A    between atoms: _386  and  _388
REMARK  140  A    between atoms: _388  and  _389
REMARK  141  A    between atoms: _388  and  _391
REMARK  142  A    between atoms: _391  and  _392
REMARK  143  A    between atoms: _395  and  _397
REMARK  144  A    between atoms: _397  and  _398
REMARK  145  A    between atoms: _397  and  _400
REMARK  146  A    between atoms: _402  and  _404
REMARK  147  A    between atoms: _404  and  _405
REMARK  148  A    between atoms: _404  and  _407
REMARK  149  A    between atoms: _410  and  _412
REMARK  150  A    between atoms: _412  and  _413
REMARK  151  A    between atoms: _412  and  _415
REMARK  152  A    between atoms: _415  and  _416
REMARK  153  A    between atoms: _426  and  _428
REMARK  154  A    between atoms: _428  and  _429
REMARK  155  A    between atoms: _428  and  _431
REMARK  156  A    between atoms: _431  and  _432
REMARK  157  A    between atoms: _437  and  _439
REMARK  158  A    between atoms: _439  and  _440
REMARK  159  A    between atoms: _439  and  _442
REMARK  160  A    between atoms: _442  and  _443
REMARK  161  A    between atoms: _443  and  _444
REMARK  162  A    between atoms: _444  and  _445
REMARK                            x       y       z     vdW  Elec       q    Type
REMARK                         _______ _______ _______ _____ _____    ______ ____
ROOT
ATOM      1  CA  PHE A   1      13.623  13.038  15.140  0.00  0.00    +0.149 C 
ENDROOT
BRANCH   1   2
ATOM      2  C   PHE A   1      15.077  13.085  15.553  0.00  0.00    +0.239 C 
ATOM      3  O   PHE A   1      15.482  12.435  16.515  0.00  0.00    -0.274 OA
ATOM      4  N   GLY A   2      15.885  13.855  14.815  0.00  0.00    -0.297 N 
ATOM      5  H   GLY A   2      15.500  14.342  13.980  0.00  0.00    +0.150 HD
BRANCH   4   6
ATOM      6  CA  GLY A   2      17.298  14.028  15.155  0.00  0.00    +0.163 C 
BRANCH   6   7
ATOM      7  C   GLY A   2      17.598  14.590  16.514  0.00  0.00    +0.229 C 
ATOM      8  O   GLY A   2      18.580  14.192  17.093  0.00  0.00    -0.286 OA
ENDBRANCH   6   7
ENDBRANCH   4   6
ENDBRANCH   1   2
BRANCH   1   9
ATOM      9  N   PHE A   1      13.119  14.363  14.755  0.00  0.00    -0.238 NA
ATOM     10  H   PHE A   1      12.794  14.502  13.777  0.00  0.00    +0.142 HD
ENDBRANCH   1   9
BRANCH   1  11
ATOM     11  CB  PHE A   1      13.521  12.107  13.950  0.00  0.00    +0.053 C 
BRANCH  11  12
ATOM     12  CG  PHE A   1      13.992  10.764  14.221  0.00  0.00    -0.020 A 
ATOM     13  CD2 PHE A   1      13.158   9.893  14.900  0.00  0.00    -0.004 A 
ATOM     14  CE2 PHE A   1      13.595   8.585  15.206  0.00  0.00    -0.000 A 
ATOM     15  CZ  PHE A   1      14.813   8.154  14.785  0.00  0.00    -0.000 A 
ATOM     16  CE1 PHE A   1      15.702   9.039  14.133  0.00  0.00    -0.000 A 
ATOM     17  CD1 PHE A   1      15.274  10.352  13.844  0.00  0.00    -0.004 A 
ENDBRANCH  11  12
ENDBRANCH   1  11
TORSDOF 6
REMARK  Name = ../refined-set-2016/3ryx/3ryx_pocket.pdb
REMARK  162 active torsions:
REMARK  status: ('A' for Active; 'I' for Inactive)
REMARK    1  A    between atoms: _1  and  _3
REMARK    2  A    between atoms: _3  and  _4
REMARK    3  A    between atoms: _3  and  _6
REMARK    4  A    between atoms: _6  and  _7
REMARK    5  A    between atoms: _17  and  _19
REMARK    6  A    between atoms: _19  and  _20
REMARK    7  A    between atoms: _19  and  _22
REMARK    8  A    between atoms: _22  and  _23
REMARK    9  A    between atoms: _28  and  _29
REMARK   10  A    between atoms: _31  and  _33
REMARK   11  A    between atoms: _33  and  _34
REMARK   12  A    between atoms: _33  and  _36
REMARK   13  A    between atoms: _36  and  _37
REMARK   14  A    between atoms: _43  and  _45
REMARK   15  A    between atoms: _45  and  _46
REMARK   16  A    between atoms: _45  and  _48
REMARK   17  A    between atoms: _48  and  _49
REMARK   18  A    between atoms: _52  and  _53
REMARK   19  A    between atoms: _58  and  _60
REMARK   20  A    between atoms: _60  and  _61
REMARK   21  A    between atoms: _60  and  _63
REMARK   22  A    between atoms: _63  and  _64
REMARK   23  A    between atoms: _69  and  _71
REMARK   24  A    between atoms: _71  and  _72
REMARK   25  A    between atoms: _71  and  _74
REMARK   26  A    between atoms: _74  and  _75
REMARK   27  A    between atoms: _80  and  _82
REMARK   28  A    between atoms: _82  and  _83
REMARK   29  A    between atoms: _86  and  _88
REMARK   30  A    between atoms: _88  and  _89
REMARK   31  A    between atoms: _88  and  _91
REMARK   32  A    between atoms: _91  and  _92
REMARK   33  A    between atoms: _97  and  _99
REMARK   34  A    between atoms: _99  and  _100
REMARK   35  A    between atoms: _99  and  _102
REMARK   36  A    between atoms: _102  and  _103
REMARK   37  A    between atoms: _106  and  _108
REMARK   38  A    between atoms: _108  and  _109
REMARK   39  A    between atoms: _108  and  _111
REMARK   40  A    between atoms: _111  and  _112
REMARK   41  A    between atoms: _112  and  _113
REMARK   42  A    between atoms: _118  and  _120
REMARK   43  A    between atoms: _120  and  _121
REMARK   44  A    between atoms: _120  and  _123
REMARK   45  A    between atoms: _123  and  _124
REMARK   46  A    between atoms: _130  and  _132
REMARK   47  A    between atoms: _143  and  _146
REMARK   48  A    between atoms: _146  and  _147
REMARK   49  A    between atoms: _155  and  _156
REMARK   50  A    between atoms: _164  and  _166
REMARK   51  A    between atoms: _166  and  _167
REMARK   52  A    between atoms: _166  and  _169
REMARK   53  A    between atoms: _169  and  _170
REMARK   54  A    between atoms: _170  and  _171
REMARK   55  A    between atoms: _174  and  _176
REMARK   56  A    between atoms: _176  and  _177
REMARK   57  A    between atoms: _176  and  _179
REMARK   58  A    between atoms: _179  and  _180
REMARK   59  A    between atoms: _185  and  _187
REMARK   60  A    between atoms: _187  and  _188
REMARK   61  A    between atoms: _187  and  _190
REMARK   62  A    between atoms: _190  and  _191
REMARK   63  A    between atoms: _191  and  _192
REMARK   64  A    between atoms: _195  and  _197
REMARK   65  A    between atoms: _197  and  _198
REMARK   66  A    between atoms: _197  and  _200
REMARK   67  A    between atoms: _200  and  _201
REMARK   68  A    between atoms: _204  and  _206
REMARK   69  A    between atoms: _206  and  _207
REMARK   70  A    between atoms: _206  and  _209
REMARK   71  A    between atoms: _209  and  _210
REMARK   72  A    between atoms: _211  and  ZN_454
REMARK   73  A    between atoms: _215  and  _217
REMARK   74  A    between atoms: _217  and  _218
REMARK   75  A    between atoms: _217  and  _220
REMARK   76  A    between atoms: _220  and  _221
REMARK   77  A    between atoms: _224  and  _226
REMARK   78  A    between atoms: _226  and  _227
REMARK   79  A    between atoms: _226  and  _229
REMARK   80  A    between atoms: _232  and  _234
REMARK   81  A    between atoms: _234  and  _235
REMARK   82  A    between atoms: _234  and  _237
REMARK   83  A    between atoms: _237  and  _238
REMARK   84  A    between atoms: _243  and  _245
REMARK   85  A    between atoms: _245  and  _246
REMARK   86  A    between atoms: _245  and  _248
REMARK   87  A    between atoms: _248  and  _249
REMARK   88  A    between atoms: _255  and  _257
REMARK   89  A    between atoms: _257  and  _258
REMARK   90  A    between atoms: _260  and  _262
REMARK   91  A    between atoms: _262  and  _263
REMARK   92  A    between atoms: _266  and  _268
REMARK   93  A    between atoms: _268  and  _269
REMARK   94  A    between atoms: _268  and  _271
REMARK   95  A    between atoms: _274  and  _276
REMARK   96  A    between atoms: _276  and  _277
REMARK   97  A    between atoms: _276  and  _279
REMARK   98  A    between atoms: _279  and  _280
REMARK   99  A    between atoms: _280  and  _281
REMARK  100  A    between atoms: _286  and  _288
REMARK  101  A    between atoms: _288  and  _289
REMARK  102  A    between atoms: _288  and  _291
REMARK  103  A    between atoms: _291  and  _292
REMARK  104  A    between atoms: _295  and  _297
REMARK  105  A    between atoms: _297  and  _298
REMARK  106  A    between atoms: _301  and  _303
REMARK  107  A    between atoms: _303  and  _304
REMARK  108  A    between atoms: _303  and  _306
REMARK  109  A    between atoms: _309  and  _311
REMARK  110  A    between atoms: _311  and  _312
REMARK  111  A    between atoms: _311  and  _314
REMARK  112  A    between atoms: _314  and  _315
REMARK  113  A    between atoms: _318  and  _320
REMARK  114  A    between atoms: _320  and  _321
REMARK  115  A    between atoms: _323  and  _325
REMARK  116  A    between atoms: _325  and  _326
REMARK  117  A    between atoms: _328  and  _330
REMARK  118  A    between atoms: _330  and  _331
REMARK  119  A    between atoms: _330  and  _333
REMARK  120  A    between atoms: _333  and  _334
REMARK  121  A    between atoms: _336  and  _338
REMARK  122  A    between atoms: _338  and  _339
REMARK  123  A    between atoms: _338  and  _341
REMARK  124  A    between atoms: _341  and  _342
REMARK  125  A    between atoms: _345  and  _347
REMARK  126  A    between atoms: _347  and  _348
REMARK  127  A    between atoms: _347  and  _350
REMARK  128  A    between atoms: _350  and  _351
REMARK  129  A    between atoms: _354  and  _356
REMARK  130  A    between atoms: _356  and  _357
REMARK  131  A    between atoms: _356  and  _359
REMARK  132  A    between atoms: _359  and  _360
REMARK  133  A    between atoms: _364  and  _365
REMARK  134  A    between atoms: _371  and  _372
REMARK  135  A    between atoms: _377  and  _379
REMARK  136  A    between atoms: _379  and  _380
REMARK  137  A    between atoms: _379  and  _382
REMARK  138  A    between atoms: _382  and  _383
REMARK  139  A    between atoms: _386  and  _388
REMARK  140  A    between atoms: _388  and  _389
REMARK  141  A    between atoms: _388  and  _391
REMARK  142  A    between atoms: _391  and  _392
REMARK  143  A    between atoms: _395  and  _397
REMARK  144  A    between atoms: _397  and  _398
REMARK  145  A    between atoms: _397  and  _400
REMARK  146  A    between atoms: _402  and  _404
REMARK  147  A    between atoms: _404  and  _405
REMARK  148  A    between atoms: _404  and  _407
REMARK  149  A    between atoms: _410  and  _412
REMARK  150  A    between atoms: _412  and  _413
REMARK  151  A    between atoms: _412  and  _415
REMARK  152  A    between atoms: _415  and  _416
REMARK  153  A    between atoms: _426  and  _428
REMARK  154  A    between atoms: _428  and  _429
REMARK  155  A    between atoms: _428  and  _431
REMARK  156  A    between atoms: _431  and  _432
REMARK  157  A    between atoms: _437  and  _439
REMARK  158  A    between atoms: _439  and  _440
REMARK  159  A    between atoms: _439  and  _442
REMARK  160  A    between atoms: _442  and  _443
REMARK  161  A    between atoms: _443  and  _444
REMARK  162  A    between atoms: _444  and  _445
REMARK                            x       y       z     vdW  Elec       q    Type
REMARK                         _______ _______ _______ _____ _____    ______ ____
ROOT
ATOM      1  C   VAL A   2      18.455  10.933  20.675  0.00  0.00    +0.241 C 
ATOM      2  O   VAL A   2      19.178  10.085  21.181  0.00  0.00    -0.273 OA
ATOM      3  N   GLN A   3      18.618  12.225  20.937  0.00  0.00    -0.298 N 
ATOM      4  H   GLN A   3      18.001  12.914  20.461  0.00  0.00    +0.150 HD
ENDROOT
BRANCH   1   5
ATOM      5  CA  VAL A   2      17.307  10.540  19.685  0.00  0.00    +0.148 C 
BRANCH   5   8
ATOM      6  C   ALA A   1      15.597  12.190  20.277  0.00  0.00    +0.238 C 
ATOM      7  O   ALA A   1      15.606  11.824  21.427  0.00  0.00    -0.274 OA
ATOM      8  N   VAL A   2      16.431  11.682  19.360  0.00  0.00    -0.297 N 
ATOM      9  H   VAL A   2      16.461  12.098  18.407  0.00  0.00    +0.150 HD
BRANCH   6  10
ATOM     10  CA  ALA A   1      14.636  13.312  19.885  0.00  0.00    +0.145 C 
ATOM     11  CB  ALA A   1      13.337  12.776  19.310  0.00  0.00    +0.028 C 
BRANCH  10  12
ATOM     12  N   ALA A   1      15.242  14.293  18.992  0.00  0.00    -0.238 NA
ATOM     13  H   ALA A   1      14.828  14.443  18.050  0.00  0.00    +0.142 HD
ENDBRANCH  10  12
ENDBRANCH   6  10
ENDBRANCH   5   8
BRANCH   5  14
ATOM     14  CB  VAL A   2      17.906   9.840  18.406  0.00  0.00    +0.027 C 
ATOM     15  CG2 VAL A   2      18.859  10.791  17.642  0.00  0.00    +0.002 C 
ATOM     16  CG1 VAL A   2      16.796   9.352  17.498  0.00  0.00    +0.002 C 
ENDBRANCH   5  14
ENDBRANCH   1   5
BRANCH   3  17
ATOM     17  CA  GLN A   3      19.621  12.711  21.860  0.00  0.00    +0.137 C 
BRANCH  17  18
ATOM     18  C   GLN A   3      19.073  12.881  23.281  0.00  0.00    +0.227 C 
ATOM     19  O   GLN A   3      19.799  13.316  24.188  0.00  0.00    -0.286 OA
ENDBRANCH  17  18
BRANCH  17  20
ATOM     20  CB  GLN A   3      20.139  14.038  21.305  0.00  0.00    +0.037 C 
BRANCH  20  21
ATOM     21  CG  GLN A   3      20.828  13.891  19.960  0.00  0.00    +0.087 C 
BRANCH  21  22
ATOM     22  CD  GLN A   3      21.294  15.216  19.419  0.00  0.00    +0.219 C 
ATOM     23  OE1 GLN A   3      22.088  15.901  20.064  0.00  0.00    -0.275 OA
ATOM     24  NE2 GLN A   3      20.797  15.603  18.227  0.00  0.00    -0.329 N 
ATOM     25 HE21 GLN A   3      21.082  16.515  17.816  0.00  0.00    +0.145 HD
ATOM     26 HE22 GLN A   3      20.128  14.990  17.719  0.00  0.00    +0.145 HD
ENDBRANCH  21  22
ENDBRANCH  20  21
ENDBRANCH  17  20
ENDBRANCH   3  17
TORSDOF 10
REMARK  Name = ../refined-set-2016/3ryx/3ryx_pocket.pdb
REMARK  162 active torsions:
REMARK  status: ('A' for Active; 'I' for Inactive)
REMARK    1  A    between atoms: _1  and  _3
REMARK    2  A    between atoms: _3  and  _4
REMARK    3  A    between atoms: _3  and  _6
REMARK    4  A    between atoms: _6  and  _7
REMARK    5  A    between atoms: _17  and  _19
REMARK    6  A    between atoms: _19  and  _20
REMARK    7  A    between atoms: _19  and  _22
REMARK    8  A    between atoms: _22  and  _23
REMARK    9  A    between atoms: _28  and  _29
REMARK   10  A    between atoms: _31  and  _33
REMARK   11  A    between atoms: _33  and  _34
REMARK   12  A    between atoms: _33  and  _36
REMARK   13  A    between atoms: _36  and  _37
REMARK   14  A    between atoms: _43  and  _45
REMARK   15  A    between atoms: _45  and  _46
REMARK   16  A    between atoms: _45  and  _48
REMARK   17  A    between atoms: _48  and  _49
REMARK   18  A    between atoms: _52  and  _53
REMARK   19  A    between atoms: _58  and  _60
REMARK   20  A    between atoms: _60  and  _61
REMARK   21  A    between atoms: _60  and  _63
REMARK   22  A    between atoms: _63  and  _64
REMARK   23  A    between atoms: _69  and  _71
REMARK   24  A    between atoms: _71  and  _72
REMARK   25  A    between atoms: _71  and  _74
REMARK   26  A    between atoms: _74  and  _75
REMARK   27  A    between atoms: _80  and  _82
REMARK   28  A    between atoms: _82  and  _83
REMARK   29  A    between atoms: _86  and  _88
REMARK   30  A    between atoms: _88  and  _89
REMARK   31  A    between atoms: _88  and  _91
REMARK   32  A    between atoms: _91  and  _92
REMARK   33  A    between atoms: _97  and  _99
REMARK   34  A    between atoms: _99  and  _100
REMARK   35  A    between atoms: _99  and  _102
REMARK   36  A    between atoms: _102  and  _103
REMARK   37  A    between atoms: _106  and  _108
REMARK   38  A    between atoms: _108  and  _109
REMARK   39  A    between atoms: _108  and  _111
REMARK   40  A    between atoms: _111  and  _112
REMARK   41  A    between atoms: _112  and  _113
REMARK   42  A    between atoms: _118  and  _120
REMARK   43  A    between atoms: _120  and  _121
REMARK   44  A    between atoms: _120  and  _123
REMARK   45  A    between atoms: _123  and  _124
REMARK   46  A    between atoms: _130  and  _132
REMARK   47  A    between atoms: _143  and  _146
REMARK   48  A    between atoms: _146  and  _147
REMARK   49  A    between atoms: _155  and  _156
REMARK   50  A    between atoms: _164  and  _166
REMARK   51  A    between atoms: _166  and  _167
REMARK   52  A    between atoms: _166  and  _169
REMARK   53  A    between atoms: _169  and  _170
REMARK   54  A    between atoms: _170  and  _171
REMARK   55  A    between atoms: _174  and  _176
REMARK   56  A    between atoms: _176  and  _177
REMARK   57  A    between atoms: _176  and  _179
REMARK   58  A    between atoms: _179  and  _180
REMARK   59  A    between atoms: _185  and  _187
REMARK   60  A    between atoms: _187  and  _188
REMARK   61  A    between atoms: _187  and  _190
REMARK   62  A    between atoms: _190  and  _191
REMARK   63  A    between atoms: _191  and  _192
REMARK   64  A    between atoms: _195  and  _197
REMARK   65  A    between atoms: _197  and  _198
REMARK   66  A    between atoms: _197  and  _200
REMARK   67  A    between atoms: _200  and  _201
REMARK   68  A    between atoms: _204  and  _206
REMARK   69  A    between atoms: _206  and  _207
REMARK   70  A    between atoms: _206  and  _209
REMARK   71  A    between atoms: _209  and  _210
REMARK   72  A    between atoms: _211  and  ZN_454
REMARK   73  A    between atoms: _215  and  _217
REMARK   74  A    between atoms: _217  and  _218
REMARK   75  A    between atoms: _217  and  _220
REMARK   76  A    between atoms: _220  and  _221
REMARK   77  A    between atoms: _224  and  _226
REMARK   78  A    between atoms: _226  and  _227
REMARK   79  A    between atoms: _226  and  _229
REMARK   80  A    between atoms: _232  and  _234
REMARK   81  A    between atoms: _234  and  _235
REMARK   82  A    between atoms: _234  and  _237
REMARK   83  A    between atoms: _237  and  _238
REMARK   84  A    between atoms: _243  and  _245
REMARK   85  A    between atoms: _245  and  _246
REMARK   86  A    between atoms: _245  and  _248
REMARK   87  A    between atoms: _248  and  _249
REMARK   88  A    between atoms: _255  and  _257
REMARK   89  A    between atoms: _257  and  _258
REMARK   90  A    between atoms: _260  and  _262
REMARK   91  A    between atoms: _262  and  _263
REMARK   92  A    between atoms: _266  and  _268
REMARK   93  A    between atoms: _268  and  _269
REMARK   94  A    between atoms: _268  and  _271
REMARK   95  A    between atoms: _274  and  _276
REMARK   96  A    between atoms: _276  and  _277
REMARK   97  A    between atoms: _276  and  _279
REMARK   98  A    between atoms: _279  and  _280
REMARK   99  A    between atoms: _280  and  _281
REMARK  100  A    between atoms: _286  and  _288
REMARK  101  A    between atoms: _288  and  _289
REMARK  102  A    between atoms: _288  and  _291
REMARK  103  A    between atoms: _291  and  _292
REMARK  104  A    between atoms: _295  and  _297
REMARK  105  A    between atoms: _297  and  _298
REMARK  106  A    between atoms: _301  and  _303
REMARK  107  A    between atoms: _303  and  _304
REMARK  108  A    between atoms: _303  and  _306
REMARK  109  A    between atoms: _309  and  _311
REMARK  110  A    between atoms: _311  and  _312
REMARK  111  A    between atoms: _311  and  _314
REMARK  112  A    between atoms: _314  and  _315
REMARK  113  A    between atoms: _318  and  _320
REMARK  114  A    between atoms: _320  and  _321
REMARK  115  A    between atoms: _323  and  _325
REMARK  116  A    between atoms: _325  and  _326
REMARK  117  A    between atoms: _328  and  _330
REMARK  118  A    between atoms: _330  and  _331
REMARK  119  A    between atoms: _330  and  _333
REMARK  120  A    between atoms: _333  and  _334
REMARK  121  A    between atoms: _336  and  _338
REMARK  122  A    between atoms: _338  and  _339
REMARK  123  A    between atoms: _338  and  _341
REMARK  124  A    between atoms: _341  and  _342
REMARK  125  A    between atoms: _345  and  _347
REMARK  126  A    between atoms: _347  and  _348
REMARK  127  A    between atoms: _347  and  _350
REMARK  128  A    between atoms: _350  and  _351
REMARK  129  A    between atoms: _354  and  _356
REMARK  130  A    between atoms: _356  and  _357
REMARK  131  A    between atoms: _356  and  _359
REMARK  132  A    between atoms: _359  and  _360
REMARK  133  A    between atoms: _364  and  _365
REMARK  134  A    between atoms: _371  and  _372
REMARK  135  A    between atoms: _377  and  _379
REMARK  136  A    between atoms: _379  and  _380
REMARK  137  A    between atoms: _379  and  _382
REMARK  138  A    between atoms: _382  and  _383
REMARK  139  A    between atoms: _386  and  _388
REMARK  140  A    between atoms: _388  and  _389
REMARK  141  A    between atoms: _388  and  _391
REMARK  142  A    between atoms: _391  and  _392
REMARK  143  A    between atoms: _395  and  _397
REMARK  144  A    between atoms: _397  and  _398
REMARK  145  A    between atoms: _397  and  _400
REMARK  146  A    between atoms: _402  and  _404
REMARK  147  A    between atoms: _404  and  _405
REMARK  148  A    between atoms: _404  and  _407
REMARK  149  A    between atoms: _410  and  _412
REMARK  150  A    between atoms: _412  and  _413
REMARK  151  A    between atoms: _412  and  _415
REMARK  152  A    between atoms: _415  and  _416
REMARK  153  A    between atoms: _426  and  _428
REMARK  154  A    between atoms: _428  and  _429
REMARK  155  A    between atoms: _428  and  _431
REMARK  156  A    between atoms: _431  and  _432
REMARK  157  A    between atoms: _437  and  _439
REMARK  158  A    between atoms: _439  and  _440
REMARK  159  A    between atoms: _439  and  _442
REMARK  160  A    between atoms: _442  and  _443
REMARK  161  A    between atoms: _443  and  _444
REMARK  162  A    between atoms: _444  and  _445
REMARK                            x       y       z     vdW  Elec       q    Type
REMARK                         _______ _______ _______ _____ _____    ______ ____
ROOT
ATOM      1  CA  VAL A   3       9.336   1.843  20.079  0.00  0.00    +0.149 C 
ENDROOT
BRANCH   1   3
ATOM      2  C   ALA A   2       8.951   4.026  20.892  0.00  0.00    +0.241 C 
ATOM      3  N   VAL A   3       9.418   2.799  21.136  0.00  0.00    -0.297 N 
ATOM      4  H   VAL A   3       9.825   2.550  22.060  0.00  0.00    +0.150 HD
ATOM      5  O   ALA A   2       8.499   4.356  19.772  0.00  0.00    -0.273 OA
BRANCH   2   6
ATOM      6  CA  ALA A   2       9.012   5.076  22.003  0.00  0.00    +0.149 C 
ATOM      7  CB  ALA A   2       7.637   5.511  22.344  0.00  0.00    +0.031 C 
BRANCH   6  10
ATOM      8  C   LEU A   1      10.812   6.719  22.145  0.00  0.00    +0.238 C 
ATOM      9  O   LEU A   1      11.071   6.454  23.332  0.00  0.00    -0.274 OA
ATOM     10  N   ALA A   2       9.783   6.213  21.484  0.00  0.00    -0.297 N 
ATOM     11  H   ALA A   2       9.513   6.632  20.571  0.00  0.00    +0.150 HD
BRANCH   8  12
ATOM     12  CA  LEU A   1      11.679   7.658  21.330  0.00  0.00    +0.145 C 
BRANCH  12  13
ATOM     13  N   LEU A   1      12.413   8.606  22.204  0.00  0.00    -0.238 NA
ATOM     14  H   LEU A   1      13.032   8.261  22.965  0.00  0.00    +0.142 HD
ENDBRANCH  12  13
BRANCH  12  15
ATOM     15  CB  LEU A   1      12.604   6.787  20.487  0.00  0.00    +0.026 C 
BRANCH  15  16
ATOM     16  CG  LEU A   1      13.459   7.433  19.399  0.00  0.00    +0.002 C 
ATOM     17  CD2 LEU A   1      13.033   8.718  18.639  0.00  0.00    +0.000 C 
ATOM     18  CD1 LEU A   1      14.200   6.403  18.467  0.00  0.00    +0.000 C 
ENDBRANCH  15  16
ENDBRANCH  12  15
ENDBRANCH   8  12
ENDBRANCH   6  10
ENDBRANCH   2   6
ENDBRANCH   1   3
BRANCH   1  19
ATOM     19  C   VAL A   3       8.382   0.757  20.589  0.00  0.00    +0.241 C 
ATOM     20  O   VAL A   3       8.552   0.235  21.696  0.00  0.00    -0.273 OA
ATOM     21  N   LEU A   4       7.385   0.482  19.780  0.00  0.00    -0.297 N 
ATOM     22  H   LEU A   4       7.286   1.051  18.915  0.00  0.00    +0.150 HD
BRANCH  21  23
ATOM     23  CA  LEU A   4       6.413  -0.569  20.021  0.00  0.00    +0.149 C 
BRANCH  23  24
ATOM     24  C   LEU A   4       6.936  -1.824  19.332  0.00  0.00    +0.241 C 
ATOM     25  N   GLY A   5       7.275  -2.830  20.154  0.00  0.00    -0.296 N 
ATOM     26  H   GLY A   5       7.163  -2.702  21.180  0.00  0.00    +0.150 HD
ATOM     27  O   LEU A   4       7.099  -1.841  18.085  0.00  0.00    -0.273 OA
BRANCH  25  28
ATOM     28  CA  GLY A   5       7.803  -4.116  19.646  0.00  0.00    +0.163 C 
BRANCH  28  29
ATOM     29  C   GLY A   5       6.741  -5.224  19.682  0.00  0.00    +0.229 C 
ATOM     30  O   GLY A   5       5.982  -5.363  20.658  0.00  0.00    -0.286 OA
ENDBRANCH  28  29
ENDBRANCH  25  28
ENDBRANCH  23  24
BRANCH  23  31
ATOM     31  CB  LEU A   4       5.053  -0.148  19.405  0.00  0.00    +0.029 C 
BRANCH  31  32
ATOM     32  CG  LEU A   4       3.857  -1.061  19.618  0.00  0.00    +0.002 C 
ATOM     33  CD2 LEU A   4       3.711  -1.383  21.098  0.00  0.00    +0.000 C 
ATOM     34  CD1 LEU A   4       2.587  -0.475  19.019  0.00  0.00    +0.000 C 
ENDBRANCH  31  32
ENDBRANCH  23  31
ENDBRANCH  21  23
ENDBRANCH   1  19
BRANCH   1  35
ATOM     35  CB  VAL A   3      10.714   1.242  19.761  0.00  0.00    +0.027 C 
ATOM     36  CG2 VAL A   3      11.650   2.329  19.307  0.00  0.00    +0.002 C 
ATOM     37  CG1 VAL A   3      10.548   0.171  18.658  0.00  0.00    +0.002 C 
ENDBRANCH   1  35
TORSDOF 15
REMARK  Name = ../refined-set-2016/3ryx/3ryx_pocket.pdb
REMARK  162 active torsions:
REMARK  status: ('A' for Active; 'I' for Inactive)
REMARK    1  A    between atoms: _1  and  _3
REMARK    2  A    between atoms: _3  and  _4
REMARK    3  A    between atoms: _3  and  _6
REMARK    4  A    between atoms: _6  and  _7
REMARK    5  A    between atoms: _17  and  _19
REMARK    6  A    between atoms: _19  and  _20
REMARK    7  A    between atoms: _19  and  _22
REMARK    8  A    between atoms: _22  and  _23
REMARK    9  A    between atoms: _28  and  _29
REMARK   10  A    between atoms: _31  and  _33
REMARK   11  A    between atoms: _33  and  _34
REMARK   12  A    between atoms: _33  and  _36
REMARK   13  A    between atoms: _36  and  _37
REMARK   14  A    between atoms: _43  and  _45
REMARK   15  A    between atoms: _45  and  _46
REMARK   16  A    between atoms: _45  and  _48
REMARK   17  A    between atoms: _48  and  _49
REMARK   18  A    between atoms: _52  and  _53
REMARK   19  A    between atoms: _58  and  _60
REMARK   20  A    between atoms: _60  and  _61
REMARK   21  A    between atoms: _60  and  _63
REMARK   22  A    between atoms: _63  and  _64
REMARK   23  A    between atoms: _69  and  _71
REMARK   24  A    between atoms: _71  and  _72
REMARK   25  A    between atoms: _71  and  _74
REMARK   26  A    between atoms: _74  and  _75
REMARK   27  A    between atoms: _80  and  _82
REMARK   28  A    between atoms: _82  and  _83
REMARK   29  A    between atoms: _86  and  _88
REMARK   30  A    between atoms: _88  and  _89
REMARK   31  A    between atoms: _88  and  _91
REMARK   32  A    between atoms: _91  and  _92
REMARK   33  A    between atoms: _97  and  _99
REMARK   34  A    between atoms: _99  and  _100
REMARK   35  A    between atoms: _99  and  _102
REMARK   36  A    between atoms: _102  and  _103
REMARK   37  A    between atoms: _106  and  _108
REMARK   38  A    between atoms: _108  and  _109
REMARK   39  A    between atoms: _108  and  _111
REMARK   40  A    between atoms: _111  and  _112
REMARK   41  A    between atoms: _112  and  _113
REMARK   42  A    between atoms: _118  and  _120
REMARK   43  A    between atoms: _120  and  _121
REMARK   44  A    between atoms: _120  and  _123
REMARK   45  A    between atoms: _123  and  _124
REMARK   46  A    between atoms: _130  and  _132
REMARK   47  A    between atoms: _143  and  _146
REMARK   48  A    between atoms: _146  and  _147
REMARK   49  A    between atoms: _155  and  _156
REMARK   50  A    between atoms: _164  and  _166
REMARK   51  A    between atoms: _166  and  _167
REMARK   52  A    between atoms: _166  and  _169
REMARK   53  A    between atoms: _169  and  _170
REMARK   54  A    between atoms: _170  and  _171
REMARK   55  A    between atoms: _174  and  _176
REMARK   56  A    between atoms: _176  and  _177
REMARK   57  A    between atoms: _176  and  _179
REMARK   58  A    between atoms: _179  and  _180
REMARK   59  A    between atoms: _185  and  _187
REMARK   60  A    between atoms: _187  and  _188
REMARK   61  A    between atoms: _187  and  _190
REMARK   62  A    between atoms: _190  and  _191
REMARK   63  A    between atoms: _191  and  _192
REMARK   64  A    between atoms: _195  and  _197
REMARK   65  A    between atoms: _197  and  _198
REMARK   66  A    between atoms: _197  and  _200
REMARK   67  A    between atoms: _200  and  _201
REMARK   68  A    between atoms: _204  and  _206
REMARK   69  A    between atoms: _206  and  _207
REMARK   70  A    between atoms: _206  and  _209
REMARK   71  A    between atoms: _209  and  _210
REMARK   72  A    between atoms: _211  and  ZN_454
REMARK   73  A    between atoms: _215  and  _217
REMARK   74  A    between atoms: _217  and  _218
REMARK   75  A    between atoms: _217  and  _220
REMARK   76  A    between atoms: _220  and  _221
REMARK   77  A    between atoms: _224  and  _226
REMARK   78  A    between atoms: _226  and  _227
REMARK   79  A    between atoms: _226  and  _229
REMARK   80  A    between atoms: _232  and  _234
REMARK   81  A    between atoms: _234  and  _235
REMARK   82  A    between atoms: _234  and  _237
REMARK   83  A    between atoms: _237  and  _238
REMARK   84  A    between atoms: _243  and  _245
REMARK   85  A    between atoms: _245  and  _246
REMARK   86  A    between atoms: _245  and  _248
REMARK   87  A    between atoms: _248  and  _249
REMARK   88  A    between atoms: _255  and  _257
REMARK   89  A    between atoms: _257  and  _258
REMARK   90  A    between atoms: _260  and  _262
REMARK   91  A    between atoms: _262  and  _263
REMARK   92  A    between atoms: _266  and  _268
REMARK   93  A    between atoms: _268  and  _269
REMARK   94  A    between atoms: _268  and  _271
REMARK   95  A    between atoms: _274  and  _276
REMARK   96  A    between atoms: _276  and  _277
REMARK   97  A    between atoms: _276  and  _279
REMARK   98  A    between atoms: _279  and  _280
REMARK   99  A    between atoms: _280  and  _281
REMARK  100  A    between atoms: _286  and  _288
REMARK  101  A    between atoms: _288  and  _289
REMARK  102  A    between atoms: _288  and  _291
REMARK  103  A    between atoms: _291  and  _292
REMARK  104  A    between atoms: _295  and  _297
REMARK  105  A    between atoms: _297  and  _298
REMARK  106  A    between atoms: _301  and  _303
REMARK  107  A    between atoms: _303  and  _304
REMARK  108  A    between atoms: _303  and  _306
REMARK  109  A    between atoms: _309  and  _311
REMARK  110  A    between atoms: _311  and  _312
REMARK  111  A    between atoms: _311  and  _314
REMARK  112  A    between atoms: _314  and  _315
REMARK  113  A    between atoms: _318  and  _320
REMARK  114  A    between atoms: _320  and  _321
REMARK  115  A    between atoms: _323  and  _325
REMARK  116  A    between atoms: _325  and  _326
REMARK  117  A    between atoms: _328  and  _330
REMARK  118  A    between atoms: _330  and  _331
REMARK  119  A    between atoms: _330  and  _333
REMARK  120  A    between atoms: _333  and  _334
REMARK  121  A    between atoms: _336  and  _338
REMARK  122  A    between atoms: _338  and  _339
REMARK  123  A    between atoms: _338  and  _341
REMARK  124  A    between atoms: _341  and  _342
REMARK  125  A    between atoms: _345  and  _347
REMARK  126  A    between atoms: _347  and  _348
REMARK  127  A    between atoms: _347  and  _350
REMARK  128  A    between atoms: _350  and  _351
REMARK  129  A    between atoms: _354  and  _356
REMARK  130  A    between atoms: _356  and  _357
REMARK  131  A    between atoms: _356  and  _359
REMARK  132  A    between atoms: _359  and  _360
REMARK  133  A    between atoms: _364  and  _365
REMARK  134  A    between atoms: _371  and  _372
REMARK  135  A    between atoms: _377  and  _379
REMARK  136  A    between atoms: _379  and  _380
REMARK  137  A    between atoms: _379  and  _382
REMARK  138  A    between atoms: _382  and  _383
REMARK  139  A    between atoms: _386  and  _388
REMARK  140  A    between atoms: _388  and  _389
REMARK  141  A    between atoms: _388  and  _391
REMARK  142  A    between atoms: _391  and  _392
REMARK  143  A    between atoms: _395  and  _397
REMARK  144  A    between atoms: _397  and  _398
REMARK  145  A    between atoms: _397  and  _400
REMARK  146  A    between atoms: _402  and  _404
REMARK  147  A    between atoms: _404  and  _405
REMARK  148  A    between atoms: _404  and  _407
REMARK  149  A    between atoms: _410  and  _412
REMARK  150  A    between atoms: _412  and  _413
REMARK  151  A    between atoms: _412  and  _415
REMARK  152  A    between atoms: _415  and  _416
REMARK  153  A    between atoms: _426  and  _428
REMARK  154  A    between atoms: _428  and  _429
REMARK  155  A    between atoms: _428  and  _431
REMARK  156  A    between atoms: _431  and  _432
REMARK  157  A    between atoms: _437  and  _439
REMARK  158  A    between atoms: _439  and  _440
REMARK  159  A    between atoms: _439  and  _442
REMARK  160  A    between atoms: _442  and  _443
REMARK  161  A    between atoms: _443  and  _444
REMARK  162  A    between atoms: _444  and  _445
REMARK                            x       y       z     vdW  Elec       q    Type
REMARK                         _______ _______ _______ _____ _____    ______ ____
ROOT
ATOM      1  CA  THR A   5      21.509  -0.885  16.174  0.00  0.00    +0.176 C 
ENDROOT
BRANCH   1   2
ATOM      2  C   THR A   5      22.355   0.347  16.467  0.00  0.00    +0.246 C 
ATOM      3  O   THR A   5      21.834   1.359  17.020  0.00  0.00    -0.273 OA
ATOM      4  N   PRO A   6      23.672   0.335  16.047  0.00  0.00    -0.272 N 
ATOM      5  CA  PRO A   6      24.439   1.595  16.112  0.00  0.00    +0.152 C 
ATOM      6  CB  PRO A   6      25.694   1.272  15.281  0.00  0.00    +0.031 C 
ATOM      7  CG  PRO A   6      25.887  -0.254  15.490  0.00  0.00    +0.024 C 
ATOM      8  CD  PRO A   6      24.444  -0.749  15.417  0.00  0.00    +0.094 C 
BRANCH   5   9
ATOM      9  C   PRO A   6      23.628   2.772  15.552  0.00  0.00    +0.244 C 
ATOM     10  N   PRO A   7      23.640   3.927  16.218  0.00  0.00    -0.272 N 
ATOM     11  CA  PRO A   7      24.566   4.270  17.330  0.00  0.00    +0.152 C 
ATOM     12  CB  PRO A   7      24.671   5.802  17.206  0.00  0.00    +0.031 C 
ATOM     13  CG  PRO A   7      23.316   6.225  16.709  0.00  0.00    +0.024 C 
ATOM     14  CD  PRO A   7      22.908   5.128  15.721  0.00  0.00    +0.094 C 
ATOM     15  O   PRO A   6      23.069   2.663  14.477  0.00  0.00    -0.273 OA
BRANCH  11  16
ATOM     16  C   PRO A   7      24.152   3.878  18.756  0.00  0.00    +0.241 C 
ATOM     17  O   PRO A   7      24.806   4.305  19.749  0.00  0.00    -0.273 OA
ATOM     18  N   LEU A   8      23.128   3.035  18.872  0.00  0.00    -0.297 N 
ATOM     19  H   LEU A   8      22.542   2.816  18.041  0.00  0.00    +0.150 HD
BRANCH  18  20
ATOM     20  CA  LEU A   8      22.819   2.407  20.180  0.00  0.00    +0.149 C 
BRANCH  20  21
ATOM     21  C   LEU A   8      22.443   3.452  21.247  0.00  0.00    +0.241 C 
ATOM     22  O   LEU A   8      22.599   3.194  22.455  0.00  0.00    -0.273 OA
ATOM     23  N   LEU A   9      21.868   4.574  20.801  0.00  0.00    -0.298 N 
ATOM     24  H   LEU A   9      21.635   4.687  19.794  0.00  0.00    +0.150 HD
BRANCH  23  25
ATOM     25  CA  LEU A   9      21.574   5.635  21.757  0.00  0.00    +0.137 C 
BRANCH  25  26
ATOM     26  C   LEU A   9      20.551   5.186  22.803  0.00  0.00    +0.227 C 
ATOM     27  O   LEU A   9      19.532   4.532  22.501  0.00  0.00    -0.286 OA
ENDBRANCH  25  26
BRANCH  25  28
ATOM     28  CB  LEU A   9      21.095   6.894  21.046  0.00  0.00    +0.028 C 
BRANCH  28  29
ATOM     29  CG  LEU A   9      22.078   7.432  19.993  0.00  0.00    +0.002 C 
ATOM     30  CD2 LEU A   9      23.224   8.170  20.706  0.00  0.00    +0.000 C 
ATOM     31  CD1 LEU A   9      21.374   8.376  19.059  0.00  0.00    +0.000 C 
ENDBRANCH  28  29
ENDBRANCH  25  28
ENDBRANCH  23  25
ENDBRANCH  20  21
BRANCH  20  32
ATOM     32  CB  LEU A   8      23.967   1.530  20.686  0.00  0.00    +0.029 C 
BRANCH  32  33
ATOM     33  CG  LEU A   8      24.368   0.415  19.680  0.00  0.00    +0.002 C 
ATOM     34  CD2 LEU A   8      25.694  -0.178  20.177  0.00  0.00    +0.000 C 
ATOM     35  CD1 LEU A   8      23.257  -0.653  19.541  0.00  0.00    +0.000 C 
ENDBRANCH  32  33
ENDBRANCH  20  32
ENDBRANCH  18  20
ENDBRANCH  11  16
ENDBRANCH   5   9
ENDBRANCH   1   2
BRANCH   1  38
ATOM     36  C   THR A   4      20.274  -2.009  17.947  0.00  0.00    +0.243 C 
ATOM     37  O   THR A   4      20.864  -3.077  17.710  0.00  0.00    -0.273 OA
ATOM     38  N   THR A   5      20.431  -0.949  17.181  0.00  0.00    -0.295 N 
ATOM     39  H   THR A   5      19.784  -0.142  17.287  0.00  0.00    +0.150 HD
BRANCH  36  40
ATOM     40  CA  THR A   4      19.261  -1.927  19.097  0.00  0.00    +0.176 C 
BRANCH  40  43
ATOM     41  C   LEU A   3      19.072   0.346  19.965  0.00  0.00    +0.241 C 
ATOM     42  O   LEU A   3      20.124   0.188  20.626  0.00  0.00    -0.273 OA
ATOM     43  N   THR A   4      18.586  -0.602  19.155  0.00  0.00    -0.295 N 
ATOM     44  H   THR A   4      17.745  -0.415  18.572  0.00  0.00    +0.150 HD
BRANCH  41  45
ATOM     45  CA  LEU A   3      18.343   1.685  19.948  0.00  0.00    +0.149 C 
BRANCH  45  48
ATOM     46  C   SER A   2      17.812   1.535  22.266  0.00  0.00    +0.243 C 
ATOM     47  O   SER A   2      17.018   0.617  22.088  0.00  0.00    -0.273 OA
ATOM     48  N   LEU A   3      18.372   2.223  21.288  0.00  0.00    -0.297 N 
ATOM     49  H   LEU A   3      18.827   3.138  21.480  0.00  0.00    +0.150 HD
BRANCH  46  50
ATOM     50  CA  SER A   2      18.221   1.947  23.681  0.00  0.00    +0.178 C 
BRANCH  50  53
ATOM     51  C   GLY A   1      16.984   1.886  25.766  0.00  0.00    +0.240 C 
ATOM     52  O   GLY A   1      16.999   3.110  25.887  0.00  0.00    -0.274 OA
ATOM     53  N   SER A   2      17.428   1.259  24.706  0.00  0.00    -0.295 N 
ATOM     54  H   SER A   2      17.213   0.248  24.588  0.00  0.00    +0.150 HD
BRANCH  51  55
ATOM     55  CA  GLY A   1      16.370   1.002  26.823  0.00  0.00    +0.169 C 
BRANCH  55  56
ATOM     56  N   GLY A   1      15.295   1.688  27.541  0.00  0.00    -0.236 NA
ATOM     57  H   GLY A   1      14.690   2.374  27.046  0.00  0.00    +0.142 HD
ENDBRANCH  55  56
ENDBRANCH  51  55
ENDBRANCH  50  53
BRANCH  50  58
ATOM     58  CB  SER A   2      19.692   1.521  23.800  0.00  0.00    +0.166 C 
BRANCH  58  59
ATOM     59  OG  SER A   2      19.928   0.160  23.352  0.00  0.00    -0.380 OA
ATOM     60  H   SER A   2      19.667   0.077  22.401  0.00  0.00    +0.211 HD
ENDBRANCH  58  59
ENDBRANCH  50  58
ENDBRANCH  46  50
ENDBRANCH  45  48
BRANCH  45  61
ATOM     61  CB  LEU A   3      19.090   2.643  18.975  0.00  0.00    +0.029 C 
BRANCH  61  62
ATOM     62  CG  LEU A   3      18.629   4.117  18.958  0.00  0.00    +0.002 C 
ATOM     63  CD2 LEU A   3      17.118   4.169  18.711  0.00  0.00    +0.000 C 
ATOM     64  CD1 LEU A   3      19.386   4.942  17.847  0.00  0.00    +0.000 C 
ENDBRANCH  61  62
ENDBRANCH  45  61
ENDBRANCH  41  45
ENDBRANCH  40  43
BRANCH  40  65
ATOM     65  CB  THR A   4      18.236  -3.103  18.958  0.00  0.00    +0.137 C 
ATOM     66  CG2 THR A   4      17.236  -3.003  20.162  0.00  0.00    +0.034 C 
BRANCH  65  67
ATOM     67  OG1 THR A   4      17.627  -3.034  17.664  0.00  0.00    -0.382 OA
ATOM     68  HG1 THR A   4      16.977  -3.774  17.567  0.00  0.00    +0.210 HD
ENDBRANCH  65  67
ENDBRANCH  40  65
ENDBRANCH  36  40
ENDBRANCH   1  38
BRANCH   1  69
ATOM     69  CB  THR A   5      20.920  -0.806  14.710  0.00  0.00    +0.137 C 
ATOM     70  CG2 THR A   5      20.279  -2.146  14.305  0.00  0.00    +0.034 C 
BRANCH  69  71
ATOM     71  OG1 THR A   5      19.942   0.250  14.642  0.00  0.00    -0.382 OA
ATOM     72  HG1 THR A   5      20.372   1.112  14.872  0.00  0.00    +0.210 HD
ENDBRANCH  69  71
ENDBRANCH   1  69
TORSDOF 28
REMARK  Name = ../refined-set-2016/3ryx/3ryx_pocket.pdb
REMARK  162 active torsions:
REMARK  status: ('A' for Active; 'I' for Inactive)
REMARK    1  A    between atoms: _1  and  _3
REMARK    2  A    between atoms: _3  and  _4
REMARK    3  A    between atoms: _3  and  _6
REMARK    4  A    between atoms: _6  and  _7
REMARK    5  A    between atoms: _17  and  _19
REMARK    6  A    between atoms: _19  and  _20
REMARK    7  A    between atoms: _19  and  _22
REMARK    8  A    between atoms: _22  and  _23
REMARK    9  A    between atoms: _28  and  _29
REMARK   10  A    between atoms: _31  and  _33
REMARK   11  A    between atoms: _33  and  _34
REMARK   12  A    between atoms: _33  and  _36
REMARK   13  A    between atoms: _36  and  _37
REMARK   14  A    between atoms: _43  and  _45
REMARK   15  A    between atoms: _45  and  _46
REMARK   16  A    between atoms: _45  and  _48
REMARK   17  A    between atoms: _48  and  _49
REMARK   18  A    between atoms: _52  and  _53
REMARK   19  A    between atoms: _58  and  _60
REMARK   20  A    between atoms: _60  and  _61
REMARK   21  A    between atoms: _60  and  _63
REMARK   22  A    between atoms: _63  and  _64
REMARK   23  A    between atoms: _69  and  _71
REMARK   24  A    between atoms: _71  and  _72
REMARK   25  A    between atoms: _71  and  _74
REMARK   26  A    between atoms: _74  and  _75
REMARK   27  A    between atoms: _80  and  _82
REMARK   28  A    between atoms: _82  and  _83
REMARK   29  A    between atoms: _86  and  _88
REMARK   30  A    between atoms: _88  and  _89
REMARK   31  A    between atoms: _88  and  _91
REMARK   32  A    between atoms: _91  and  _92
REMARK   33  A    between atoms: _97  and  _99
REMARK   34  A    between atoms: _99  and  _100
REMARK   35  A    between atoms: _99  and  _102
REMARK   36  A    between atoms: _102  and  _103
REMARK   37  A    between atoms: _106  and  _108
REMARK   38  A    between atoms: _108  and  _109
REMARK   39  A    between atoms: _108  and  _111
REMARK   40  A    between atoms: _111  and  _112
REMARK   41  A    between atoms: _112  and  _113
REMARK   42  A    between atoms: _118  and  _120
REMARK   43  A    between atoms: _120  and  _121
REMARK   44  A    between atoms: _120  and  _123
REMARK   45  A    between atoms: _123  and  _124
REMARK   46  A    between atoms: _130  and  _132
REMARK   47  A    between atoms: _143  and  _146
REMARK   48  A    between atoms: _146  and  _147
REMARK   49  A    between atoms: _155  and  _156
REMARK   50  A    between atoms: _164  and  _166
REMARK   51  A    between atoms: _166  and  _167
REMARK   52  A    between atoms: _166  and  _169
REMARK   53  A    between atoms: _169  and  _170
REMARK   54  A    between atoms: _170  and  _171
REMARK   55  A    between atoms: _174  and  _176
REMARK   56  A    between atoms: _176  and  _177
REMARK   57  A    between atoms: _176  and  _179
REMARK   58  A    between atoms: _179  and  _180
REMARK   59  A    between atoms: _185  and  _187
REMARK   60  A    between atoms: _187  and  _188
REMARK   61  A    between atoms: _187  and  _190
REMARK   62  A    between atoms: _190  and  _191
REMARK   63  A    between atoms: _191  and  _192
REMARK   64  A    between atoms: _195  and  _197
REMARK   65  A    between atoms: _197  and  _198
REMARK   66  A    between atoms: _197  and  _200
REMARK   67  A    between atoms: _200  and  _201
REMARK   68  A    between atoms: _204  and  _206
REMARK   69  A    between atoms: _206  and  _207
REMARK   70  A    between atoms: _206  and  _209
REMARK   71  A    between atoms: _209  and  _210
REMARK   72  A    between atoms: _211  and  ZN_454
REMARK   73  A    between atoms: _215  and  _217
REMARK   74  A    between atoms: _217  and  _218
REMARK   75  A    between atoms: _217  and  _220
REMARK   76  A    between atoms: _220  and  _221
REMARK   77  A    between atoms: _224  and  _226
REMARK   78  A    between atoms: _226  and  _227
REMARK   79  A    between atoms: _226  and  _229
REMARK   80  A    between atoms: _232  and  _234
REMARK   81  A    between atoms: _234  and  _235
REMARK   82  A    between atoms: _234  and  _237
REMARK   83  A    between atoms: _237  and  _238
REMARK   84  A    between atoms: _243  and  _245
REMARK   85  A    between atoms: _245  and  _246
REMARK   86  A    between atoms: _245  and  _248
REMARK   87  A    between atoms: _248  and  _249
REMARK   88  A    between atoms: _255  and  _257
REMARK   89  A    between atoms: _257  and  _258
REMARK   90  A    between atoms: _260  and  _262
REMARK   91  A    between atoms: _262  and  _263
REMARK   92  A    between atoms: _266  and  _268
REMARK   93  A    between atoms: _268  and  _269
REMARK   94  A    between atoms: _268  and  _271
REMARK   95  A    between atoms: _274  and  _276
REMARK   96  A    between atoms: _276  and  _277
REMARK   97  A    between atoms: _276  and  _279
REMARK   98  A    between atoms: _279  and  _280
REMARK   99  A    between atoms: _280  and  _281
REMARK  100  A    between atoms: _286  and  _288
REMARK  101  A    between atoms: _288  and  _289
REMARK  102  A    between atoms: _288  and  _291
REMARK  103  A    between atoms: _291  and  _292
REMARK  104  A    between atoms: _295  and  _297
REMARK  105  A    between atoms: _297  and  _298
REMARK  106  A    between atoms: _301  and  _303
REMARK  107  A    between atoms: _303  and  _304
REMARK  108  A    between atoms: _303  and  _306
REMARK  109  A    between atoms: _309  and  _311
REMARK  110  A    between atoms: _311  and  _312
REMARK  111  A    between atoms: _311  and  _314
REMARK  112  A    between atoms: _314  and  _315
REMARK  113  A    between atoms: _318  and  _320
REMARK  114  A    between atoms: _320  and  _321
REMARK  115  A    between atoms: _323  and  _325
REMARK  116  A    between atoms: _325  and  _326
REMARK  117  A    between atoms: _328  and  _330
REMARK  118  A    between atoms: _330  and  _331
REMARK  119  A    between atoms: _330  and  _333
REMARK  120  A    between atoms: _333  and  _334
REMARK  121  A    between atoms: _336  and  _338
REMARK  122  A    between atoms: _338  and  _339
REMARK  123  A    between atoms: _338  and  _341
REMARK  124  A    between atoms: _341  and  _342
REMARK  125  A    between atoms: _345  and  _347
REMARK  126  A    between atoms: _347  and  _348
REMARK  127  A    between atoms: _347  and  _350
REMARK  128  A    between atoms: _350  and  _351
REMARK  129  A    between atoms: _354  and  _356
REMARK  130  A    between atoms: _356  and  _357
REMARK  131  A    between atoms: _356  and  _359
REMARK  132  A    between atoms: _359  and  _360
REMARK  133  A    between atoms: _364  and  _365
REMARK  134  A    between atoms: _371  and  _372
REMARK  135  A    between atoms: _377  and  _379
REMARK  136  A    between atoms: _379  and  _380
REMARK  137  A    between atoms: _379  and  _382
REMARK  138  A    between atoms: _382  and  _383
REMARK  139  A    between atoms: _386  and  _388
REMARK  140  A    between atoms: _388  and  _389
REMARK  141  A    between atoms: _388  and  _391
REMARK  142  A    between atoms: _391  and  _392
REMARK  143  A    between atoms: _395  and  _397
REMARK  144  A    between atoms: _397  and  _398
REMARK  145  A    between atoms: _397  and  _400
REMARK  146  A    between atoms: _402  and  _404
REMARK  147  A    between atoms: _404  and  _405
REMARK  148  A    between atoms: _404  and  _407
REMARK  149  A    between atoms: _410  and  _412
REMARK  150  A    between atoms: _412  and  _413
REMARK  151  A    between atoms: _412  and  _415
REMARK  152  A    between atoms: _415  and  _416
REMARK  153  A    between atoms: _426  and  _428
REMARK  154  A    between atoms: _428  and  _429
REMARK  155  A    between atoms: _428  and  _431
REMARK  156  A    between atoms: _431  and  _432
REMARK  157  A    between atoms: _437  and  _439
REMARK  158  A    between atoms: _439  and  _440
REMARK  159  A    between atoms: _439  and  _442
REMARK  160  A    between atoms: _442  and  _443
REMARK  161  A    between atoms: _443  and  _444
REMARK  162  A    between atoms: _444  and  _445
REMARK                            x       y       z     vdW  Elec       q    Type
REMARK                         _______ _______ _______ _____ _____    ______ ____
ROOT
ATOM      1  C   CYS A   1      15.399   6.627  23.989  0.00  0.00    +0.239 C 
ATOM      2  N   VAL A   2      15.278   5.337  24.277  0.00  0.00    -0.298 N 
ATOM      3  H   VAL A   2      16.060   4.832  24.741  0.00  0.00    +0.150 HD
ATOM      4  O   CYS A   1      14.465   7.327  23.600  0.00  0.00    -0.274 OA
ENDROOT
BRANCH   1   5
ATOM      5  CA  CYS A   1      16.776   7.236  24.112  0.00  0.00    +0.156 C 
BRANCH   5   6
ATOM      6  N   CYS A   1      17.836   6.259  24.236  0.00  0.00    -0.237 NA
ATOM      7  H   CYS A   1      17.926   5.519  23.511  0.00  0.00    +0.142 HD
ENDBRANCH   5   6
BRANCH   5   8
ATOM      8  CB  CYS A   1      17.022   8.054  22.842  0.00  0.00    +0.095 C 
ATOM      9  SG  CYS A   1      17.119   7.068  21.296  0.00  0.00    -0.080 S 
ENDBRANCH   5   8
ENDBRANCH   1   5
BRANCH   2  10
ATOM     10  CA  VAL A   2      14.027   4.614  23.938  0.00  0.00    +0.137 C 
BRANCH  10  11
ATOM     11  CB  VAL A   2      14.305   3.332  23.082  0.00  0.00    +0.026 C 
ATOM     12  CG2 VAL A   2      13.001   2.634  22.756  0.00  0.00    +0.002 C 
ATOM     13  CG1 VAL A   2      15.087   3.661  21.758  0.00  0.00    +0.002 C 
ENDBRANCH  10  11
BRANCH  10  14
ATOM     14  C   VAL A   2      13.248   4.114  25.184  0.00  0.00    +0.227 C 
ATOM     15  O   VAL A   2      13.831   3.488  26.102  0.00  0.00    -0.286 OA
ENDBRANCH  10  14
ENDBRANCH   2  10
TORSDOF 6
REMARK  Name = ../refined-set-2016/3ryx/3ryx_pocket.pdb
REMARK  162 active torsions:
REMARK  status: ('A' for Active; 'I' for Inactive)
REMARK    1  A    between atoms: _1  and  _3
REMARK    2  A    between atoms: _3  and  _4
REMARK    3  A    between atoms: _3  and  _6
REMARK    4  A    between atoms: _6  and  _7
REMARK    5  A    between atoms: _17  and  _19
REMARK    6  A    between atoms: _19  and  _20
REMARK    7  A    between atoms: _19  and  _22
REMARK    8  A    between atoms: _22  and  _23
REMARK    9  A    between atoms: _28  and  _29
REMARK   10  A    between atoms: _31  and  _33
REMARK   11  A    between atoms: _33  and  _34
REMARK   12  A    between atoms: _33  and  _36
REMARK   13  A    between atoms: _36  and  _37
REMARK   14  A    between atoms: _43  and  _45
REMARK   15  A    between atoms: _45  and  _46
REMARK   16  A    between atoms: _45  and  _48
REMARK   17  A    between atoms: _48  and  _49
REMARK   18  A    between atoms: _52  and  _53
REMARK   19  A    between atoms: _58  and  _60
REMARK   20  A    between atoms: _60  and  _61
REMARK   21  A    between atoms: _60  and  _63
REMARK   22  A    between atoms: _63  and  _64
REMARK   23  A    between atoms: _69  and  _71
REMARK   24  A    between atoms: _71  and  _72
REMARK   25  A    between atoms: _71  and  _74
REMARK   26  A    between atoms: _74  and  _75
REMARK   27  A    between atoms: _80  and  _82
REMARK   28  A    between atoms: _82  and  _83
REMARK   29  A    between atoms: _86  and  _88
REMARK   30  A    between atoms: _88  and  _89
REMARK   31  A    between atoms: _88  and  _91
REMARK   32  A    between atoms: _91  and  _92
REMARK   33  A    between atoms: _97  and  _99
REMARK   34  A    between atoms: _99  and  _100
REMARK   35  A    between atoms: _99  and  _102
REMARK   36  A    between atoms: _102  and  _103
REMARK   37  A    between atoms: _106  and  _108
REMARK   38  A    between atoms: _108  and  _109
REMARK   39  A    between atoms: _108  and  _111
REMARK   40  A    between atoms: _111  and  _112
REMARK   41  A    between atoms: _112  and  _113
REMARK   42  A    between atoms: _118  and  _120
REMARK   43  A    between atoms: _120  and  _121
REMARK   44  A    between atoms: _120  and  _123
REMARK   45  A    between atoms: _123  and  _124
REMARK   46  A    between atoms: _130  and  _132
REMARK   47  A    between atoms: _143  and  _146
REMARK   48  A    between atoms: _146  and  _147
REMARK   49  A    between atoms: _155  and  _156
REMARK   50  A    between atoms: _164  and  _166
REMARK   51  A    between atoms: _166  and  _167
REMARK   52  A    between atoms: _166  and  _169
REMARK   53  A    between atoms: _169  and  _170
REMARK   54  A    between atoms: _170  and  _171
REMARK   55  A    between atoms: _174  and  _176
REMARK   56  A    between atoms: _176  and  _177
REMARK   57  A    between atoms: _176  and  _179
REMARK   58  A    between atoms: _179  and  _180
REMARK   59  A    between atoms: _185  and  _187
REMARK   60  A    between atoms: _187  and  _188
REMARK   61  A    between atoms: _187  and  _190
REMARK   62  A    between atoms: _190  and  _191
REMARK   63  A    between atoms: _191  and  _192
REMARK   64  A    between atoms: _195  and  _197
REMARK   65  A    between atoms: _197  and  _198
REMARK   66  A    between atoms: _197  and  _200
REMARK   67  A    between atoms: _200  and  _201
REMARK   68  A    between atoms: _204  and  _206
REMARK   69  A    between atoms: _206  and  _207
REMARK   70  A    between atoms: _206  and  _209
REMARK   71  A    between atoms: _209  and  _210
REMARK   72  A    between atoms: _211  and  ZN_454
REMARK   73  A    between atoms: _215  and  _217
REMARK   74  A    between atoms: _217  and  _218
REMARK   75  A    between atoms: _217  and  _220
REMARK   76  A    between atoms: _220  and  _221
REMARK   77  A    between atoms: _224  and  _226
REMARK   78  A    between atoms: _226  and  _227
REMARK   79  A    between atoms: _226  and  _229
REMARK   80  A    between atoms: _232  and  _234
REMARK   81  A    between atoms: _234  and  _235
REMARK   82  A    between atoms: _234  and  _237
REMARK   83  A    between atoms: _237  and  _238
REMARK   84  A    between atoms: _243  and  _245
REMARK   85  A    between atoms: _245  and  _246
REMARK   86  A    between atoms: _245  and  _248
REMARK   87  A    between atoms: _248  and  _249
REMARK   88  A    between atoms: _255  and  _257
REMARK   89  A    between atoms: _257  and  _258
REMARK   90  A    between atoms: _260  and  _262
REMARK   91  A    between atoms: _262  and  _263
REMARK   92  A    between atoms: _266  and  _268
REMARK   93  A    between atoms: _268  and  _269
REMARK   94  A    between atoms: _268  and  _271
REMARK   95  A    between atoms: _274  and  _276
REMARK   96  A    between atoms: _276  and  _277
REMARK   97  A    between atoms: _276  and  _279
REMARK   98  A    between atoms: _279  and  _280
REMARK   99  A    between atoms: _280  and  _281
REMARK  100  A    between atoms: _286  and  _288
REMARK  101  A    between atoms: _288  and  _289
REMARK  102  A    between atoms: _288  and  _291
REMARK  103  A    between atoms: _291  and  _292
REMARK  104  A    between atoms: _295  and  _297
REMARK  105  A    between atoms: _297  and  _298
REMARK  106  A    between atoms: _301  and  _303
REMARK  107  A    between atoms: _303  and  _304
REMARK  108  A    between atoms: _303  and  _306
REMARK  109  A    between atoms: _309  and  _311
REMARK  110  A    between atoms: _311  and  _312
REMARK  111  A    between atoms: _311  and  _314
REMARK  112  A    between atoms: _314  and  _315
REMARK  113  A    between atoms: _318  and  _320
REMARK  114  A    between atoms: _320  and  _321
REMARK  115  A    between atoms: _323  and  _325
REMARK  116  A    between atoms: _325  and  _326
REMARK  117  A    between atoms: _328  and  _330
REMARK  118  A    between atoms: _330  and  _331
REMARK  119  A    between atoms: _330  and  _333
REMARK  120  A    between atoms: _333  and  _334
REMARK  121  A    between atoms: _336  and  _338
REMARK  122  A    between atoms: _338  and  _339
REMARK  123  A    between atoms: _338  and  _341
REMARK  124  A    between atoms: _341  and  _342
REMARK  125  A    between atoms: _345  and  _347
REMARK  126  A    between atoms: _347  and  _348
REMARK  127  A    between atoms: _347  and  _350
REMARK  128  A    between atoms: _350  and  _351
REMARK  129  A    between atoms: _354  and  _356
REMARK  130  A    between atoms: _356  and  _357
REMARK  131  A    between atoms: _356  and  _359
REMARK  132  A    between atoms: _359  and  _360
REMARK  133  A    between atoms: _364  and  _365
REMARK  134  A    between atoms: _371  and  _372
REMARK  135  A    between atoms: _377  and  _379
REMARK  136  A    between atoms: _379  and  _380
REMARK  137  A    between atoms: _379  and  _382
REMARK  138  A    between atoms: _382  and  _383
REMARK  139  A    between atoms: _386  and  _388
REMARK  140  A    between atoms: _388  and  _389
REMARK  141  A    between atoms: _388  and  _391
REMARK  142  A    between atoms: _391  and  _392
REMARK  143  A    between atoms: _395  and  _397
REMARK  144  A    between atoms: _397  and  _398
REMARK  145  A    between atoms: _397  and  _400
REMARK  146  A    between atoms: _402  and  _404
REMARK  147  A    between atoms: _404  and  _405
REMARK  148  A    between atoms: _404  and  _407
REMARK  149  A    between atoms: _410  and  _412
REMARK  150  A    between atoms: _412  and  _413
REMARK  151  A    between atoms: _412  and  _415
REMARK  152  A    between atoms: _415  and  _416
REMARK  153  A    between atoms: _426  and  _428
REMARK  154  A    between atoms: _428  and  _429
REMARK  155  A    between atoms: _428  and  _431
REMARK  156  A    between atoms: _431  and  _432
REMARK  157  A    between atoms: _437  and  _439
REMARK  158  A    between atoms: _439  and  _440
REMARK  159  A    between atoms: _439  and  _442
REMARK  160  A    between atoms: _442  and  _443
REMARK  161  A    between atoms: _443  and  _444
REMARK  162  A    between atoms: _444  and  _445
REMARK                            x       y       z     vdW  Elec       q    Type
REMARK                         _______ _______ _______ _____ _____    ______ ____
ROOT
ATOM      1  CG  TRP A   1      12.534  -0.899  24.251  0.00  0.00    -0.002 A 
ATOM      2  CD1 TRP A   1      13.777  -0.302  24.426  0.00  0.00    +0.068 A 
ATOM      3  NE1 TRP A   1      14.466  -0.292  23.201  0.00  0.00    -0.352 N 
ATOM      4  HE1 TRP A   1      15.406   0.122  23.037  0.00  0.00    +0.166 HD
ATOM      5  CE2 TRP A   1      13.684  -0.925  22.249  0.00  0.00    +0.056 A 
ATOM      6  CZ2 TRP A   1      13.926  -1.166  20.860  0.00  0.00    +0.017 A 
ATOM      7  CH2 TRP A   1      12.935  -1.829  20.125  0.00  0.00    +0.001 A 
ATOM      8  CZ3 TRP A   1      11.678  -2.236  20.726  0.00  0.00    +0.000 A 
ATOM      9  CE3 TRP A   1      11.444  -1.972  22.112  0.00  0.00    +0.001 A 
ATOM     10  CD2 TRP A   1      12.445  -1.276  22.872  0.00  0.00    +0.013 A 
ENDROOT
BRANCH   1  11
ATOM     11  CB  TRP A   1      11.402  -1.081  25.274  0.00  0.00    +0.053 C 
BRANCH  11  12
ATOM     12  CA  TRP A   1      10.380   0.083  25.023  0.00  0.00    +0.137 C 
BRANCH  12  13
ATOM     13  N   TRP A   1      10.846   1.346  25.637  0.00  0.00    -0.239 NA
ATOM     14  H   TRP A   1      11.540   1.278  26.409  0.00  0.00    +0.142 HD
ENDBRANCH  12  13
BRANCH  12  15
ATOM     15  C   TRP A   1       9.024  -0.264  25.504  0.00  0.00    +0.224 C 
ATOM     16  O   TRP A   1       8.754  -0.304  26.706  0.00  0.00    -0.287 OA
ENDBRANCH  12  15
ENDBRANCH  11  12
ENDBRANCH   1  11
TORSDOF 4
REMARK  Name = ../refined-set-2016/3ryx/3ryx_pocket.pdb
REMARK  162 active torsions:
REMARK  status: ('A' for Active; 'I' for Inactive)
REMARK    1  A    between atoms: _1  and  _3
REMARK    2  A    between atoms: _3  and  _4
REMARK    3  A    between atoms: _3  and  _6
REMARK    4  A    between atoms: _6  and  _7
REMARK    5  A    between atoms: _17  and  _19
REMARK    6  A    between atoms: _19  and  _20
REMARK    7  A    between atoms: _19  and  _22
REMARK    8  A    between atoms: _22  and  _23
REMARK    9  A    between atoms: _28  and  _29
REMARK   10  A    between atoms: _31  and  _33
REMARK   11  A    between atoms: _33  and  _34
REMARK   12  A    between atoms: _33  and  _36
REMARK   13  A    between atoms: _36  and  _37
REMARK   14  A    between atoms: _43  and  _45
REMARK   15  A    between atoms: _45  and  _46
REMARK   16  A    between atoms: _45  and  _48
REMARK   17  A    between atoms: _48  and  _49
REMARK   18  A    between atoms: _52  and  _53
REMARK   19  A    between atoms: _58  and  _60
REMARK   20  A    between atoms: _60  and  _61
REMARK   21  A    between atoms: _60  and  _63
REMARK   22  A    between atoms: _63  and  _64
REMARK   23  A    between atoms: _69  and  _71
REMARK   24  A    between atoms: _71  and  _72
REMARK   25  A    between atoms: _71  and  _74
REMARK   26  A    between atoms: _74  and  _75
REMARK   27  A    between atoms: _80  and  _82
REMARK   28  A    between atoms: _82  and  _83
REMARK   29  A    between atoms: _86  and  _88
REMARK   30  A    between atoms: _88  and  _89
REMARK   31  A    between atoms: _88  and  _91
REMARK   32  A    between atoms: _91  and  _92
REMARK   33  A    between atoms: _97  and  _99
REMARK   34  A    between atoms: _99  and  _100
REMARK   35  A    between atoms: _99  and  _102
REMARK   36  A    between atoms: _102  and  _103
REMARK   37  A    between atoms: _106  and  _108
REMARK   38  A    between atoms: _108  and  _109
REMARK   39  A    between atoms: _108  and  _111
REMARK   40  A    between atoms: _111  and  _112
REMARK   41  A    between atoms: _112  and  _113
REMARK   42  A    between atoms: _118  and  _120
REMARK   43  A    between atoms: _120  and  _121
REMARK   44  A    between atoms: _120  and  _123
REMARK   45  A    between atoms: _123  and  _124
REMARK   46  A    between atoms: _130  and  _132
REMARK   47  A    between atoms: _143  and  _146
REMARK   48  A    between atoms: _146  and  _147
REMARK   49  A    between atoms: _155  and  _156
REMARK   50  A    between atoms: _164  and  _166
REMARK   51  A    between atoms: _166  and  _167
REMARK   52  A    between atoms: _166  and  _169
REMARK   53  A    between atoms: _169  and  _170
REMARK   54  A    between atoms: _170  and  _171
REMARK   55  A    between atoms: _174  and  _176
REMARK   56  A    between atoms: _176  and  _177
REMARK   57  A    between atoms: _176  and  _179
REMARK   58  A    between atoms: _179  and  _180
REMARK   59  A    between atoms: _185  and  _187
REMARK   60  A    between atoms: _187  and  _188
REMARK   61  A    between atoms: _187  and  _190
REMARK   62  A    between atoms: _190  and  _191
REMARK   63  A    between atoms: _191  and  _192
REMARK   64  A    between atoms: _195  and  _197
REMARK   65  A    between atoms: _197  and  _198
REMARK   66  A    between atoms: _197  and  _200
REMARK   67  A    between atoms: _200  and  _201
REMARK   68  A    between atoms: _204  and  _206
REMARK   69  A    between atoms: _206  and  _207
REMARK   70  A    between atoms: _206  and  _209
REMARK   71  A    between atoms: _209  and  _210
REMARK   72  A    between atoms: _211  and  ZN_454
REMARK   73  A    between atoms: _215  and  _217
REMARK   74  A    between atoms: _217  and  _218
REMARK   75  A    between atoms: _217  and  _220
REMARK   76  A    between atoms: _220  and  _221
REMARK   77  A    between atoms: _224  and  _226
REMARK   78  A    between atoms: _226  and  _227
REMARK   79  A    between atoms: _226  and  _229
REMARK   80  A    between atoms: _232  and  _234
REMARK   81  A    between atoms: _234  and  _235
REMARK   82  A    between atoms: _234  and  _237
REMARK   83  A    between atoms: _237  and  _238
REMARK   84  A    between atoms: _243  and  _245
REMARK   85  A    between atoms: _245  and  _246
REMARK   86  A    between atoms: _245  and  _248
REMARK   87  A    between atoms: _248  and  _249
REMARK   88  A    between atoms: _255  and  _257
REMARK   89  A    between atoms: _257  and  _258
REMARK   90  A    between atoms: _260  and  _262
REMARK   91  A    between atoms: _262  and  _263
REMARK   92  A    between atoms: _266  and  _268
REMARK   93  A    between atoms: _268  and  _269
REMARK   94  A    between atoms: _268  and  _271
REMARK   95  A    between atoms: _274  and  _276
REMARK   96  A    between atoms: _276  and  _277
REMARK   97  A    between atoms: _276  and  _279
REMARK   98  A    between atoms: _279  and  _280
REMARK   99  A    between atoms: _280  and  _281
REMARK  100  A    between atoms: _286  and  _288
REMARK  101  A    between atoms: _288  and  _289
REMARK  102  A    between atoms: _288  and  _291
REMARK  103  A    between atoms: _291  and  _292
REMARK  104  A    between atoms: _295  and  _297
REMARK  105  A    between atoms: _297  and  _298
REMARK  106  A    between atoms: _301  and  _303
REMARK  107  A    between atoms: _303  and  _304
REMARK  108  A    between atoms: _303  and  _306
REMARK  109  A    between atoms: _309  and  _311
REMARK  110  A    between atoms: _311  and  _312
REMARK  111  A    between atoms: _311  and  _314
REMARK  112  A    between atoms: _314  and  _315
REMARK  113  A    between atoms: _318  and  _320
REMARK  114  A    between atoms: _320  and  _321
REMARK  115  A    between atoms: _323  and  _325
REMARK  116  A    between atoms: _325  and  _326
REMARK  117  A    between atoms: _328  and  _330
REMARK  118  A    between atoms: _330  and  _331
REMARK  119  A    between atoms: _330  and  _333
REMARK  120  A    between atoms: _333  and  _334
REMARK  121  A    between atoms: _336  and  _338
REMARK  122  A    between atoms: _338  and  _339
REMARK  123  A    between atoms: _338  and  _341
REMARK  124  A    between atoms: _341  and  _342
REMARK  125  A    between atoms: _345  and  _347
REMARK  126  A    between atoms: _347  and  _348
REMARK  127  A    between atoms: _347  and  _350
REMARK  128  A    between atoms: _350  and  _351
REMARK  129  A    between atoms: _354  and  _356
REMARK  130  A    between atoms: _356  and  _357
REMARK  131  A    between atoms: _356  and  _359
REMARK  132  A    between atoms: _359  and  _360
REMARK  133  A    between atoms: _364  and  _365
REMARK  134  A    between atoms: _371  and  _372
REMARK  135  A    between atoms: _377  and  _379
REMARK  136  A    between atoms: _379  and  _380
REMARK  137  A    between atoms: _379  and  _382
REMARK  138  A    between atoms: _382  and  _383
REMARK  139  A    between atoms: _386  and  _388
REMARK  140  A    between atoms: _388  and  _389
REMARK  141  A    between atoms: _388  and  _391
REMARK  142  A    between atoms: _391  and  _392
REMARK  143  A    between atoms: _395  and  _397
REMARK  144  A    between atoms: _397  and  _398
REMARK  145  A    between atoms: _397  and  _400
REMARK  146  A    between atoms: _402  and  _404
REMARK  147  A    between atoms: _404  and  _405
REMARK  148  A    between atoms: _404  and  _407
REMARK  149  A    between atoms: _410  and  _412
REMARK  150  A    between atoms: _412  and  _413
REMARK  151  A    between atoms: _412  and  _415
REMARK  152  A    between atoms: _415  and  _416
REMARK  153  A    between atoms: _426  and  _428
REMARK  154  A    between atoms: _428  and  _429
REMARK  155  A    between atoms: _428  and  _431
REMARK  156  A    between atoms: _431  and  _432
REMARK  157  A    between atoms: _437  and  _439
REMARK  158  A    between atoms: _439  and  _440
REMARK  159  A    between atoms: _439  and  _442
REMARK  160  A    between atoms: _442  and  _443
REMARK  161  A    between atoms: _443  and  _444
REMARK  162  A    between atoms: _444  and  _445
REMARK                            x       y       z     vdW  Elec       q    Type
REMARK                         _______ _______ _______ _____ _____    ______ ____
ROOT
ATOM      1  CB  ASN A   1      19.224  -8.208  10.477  0.00  0.00    +0.110 C 
ENDROOT
BRANCH   1   2
ATOM      2  CG  ASN A   1      17.758  -8.350  10.277  0.00  0.00    +0.221 C 
ATOM      3  OD1 ASN A   1      17.158  -9.284  10.868  0.00  0.00    -0.275 OA
ATOM      4  ND2 ASN A   1      17.118  -7.446   9.441  0.00  0.00    -0.329 N 
ATOM      5 HD21 ASN A   1      16.094  -7.523   9.279  0.00  0.00    +0.145 HD
ATOM      6 HD22 ASN A   1      17.663  -6.692   8.977  0.00  0.00    +0.145 HD
ENDBRANCH   1   2
BRANCH   1   7
ATOM      7  CA  ASN A   1      19.766  -9.103  11.634  0.00  0.00    +0.142 C 
BRANCH   7   8
ATOM      8  N   ASN A   1      19.433 -10.534  11.403  0.00  0.00    -0.239 NA
ATOM      9  H   ASN A   1      18.500 -10.797  11.026  0.00  0.00    +0.142 HD
ENDBRANCH   7   8
BRANCH   7  10
ATOM     10  C   ASN A   1      19.233  -8.638  13.012  0.00  0.00    +0.225 C 
ATOM     11  O   ASN A   1      18.552  -7.576  13.105  0.00  0.00    -0.287 OA
ENDBRANCH   7  10
ENDBRANCH   1   7
TORSDOF 4
REMARK  Name = ../refined-set-2016/3ryx/3ryx_pocket.pdb
REMARK  162 active torsions:
REMARK  status: ('A' for Active; 'I' for Inactive)
REMARK    1  A    between atoms: _1  and  _3
REMARK    2  A    between atoms: _3  and  _4
REMARK    3  A    between atoms: _3  and  _6
REMARK    4  A    between atoms: _6  and  _7
REMARK    5  A    between atoms: _17  and  _19
REMARK    6  A    between atoms: _19  and  _20
REMARK    7  A    between atoms: _19  and  _22
REMARK    8  A    between atoms: _22  and  _23
REMARK    9  A    between atoms: _28  and  _29
REMARK   10  A    between atoms: _31  and  _33
REMARK   11  A    between atoms: _33  and  _34
REMARK   12  A    between atoms: _33  and  _36
REMARK   13  A    between atoms: _36  and  _37
REMARK   14  A    between atoms: _43  and  _45
REMARK   15  A    between atoms: _45  and  _46
REMARK   16  A    between atoms: _45  and  _48
REMARK   17  A    between atoms: _48  and  _49
REMARK   18  A    between atoms: _52  and  _53
REMARK   19  A    between atoms: _58  and  _60
REMARK   20  A    between atoms: _60  and  _61
REMARK   21  A    between atoms: _60  and  _63
REMARK   22  A    between atoms: _63  and  _64
REMARK   23  A    between atoms: _69  and  _71
REMARK   24  A    between atoms: _71  and  _72
REMARK   25  A    between atoms: _71  and  _74
REMARK   26  A    between atoms: _74  and  _75
REMARK   27  A    between atoms: _80  and  _82
REMARK   28  A    between atoms: _82  and  _83
REMARK   29  A    between atoms: _86  and  _88
REMARK   30  A    between atoms: _88  and  _89
REMARK   31  A    between atoms: _88  and  _91
REMARK   32  A    between atoms: _91  and  _92
REMARK   33  A    between atoms: _97  and  _99
REMARK   34  A    between atoms: _99  and  _100
REMARK   35  A    between atoms: _99  and  _102
REMARK   36  A    between atoms: _102  and  _103
REMARK   37  A    between atoms: _106  and  _108
REMARK   38  A    between atoms: _108  and  _109
REMARK   39  A    between atoms: _108  and  _111
REMARK   40  A    between atoms: _111  and  _112
REMARK   41  A    between atoms: _112  and  _113
REMARK   42  A    between atoms: _118  and  _120
REMARK   43  A    between atoms: _120  and  _121
REMARK   44  A    between atoms: _120  and  _123
REMARK   45  A    between atoms: _123  and  _124
REMARK   46  A    between atoms: _130  and  _132
REMARK   47  A    between atoms: _143  and  _146
REMARK   48  A    between atoms: _146  and  _147
REMARK   49  A    between atoms: _155  and  _156
REMARK   50  A    between atoms: _164  and  _166
REMARK   51  A    between atoms: _166  and  _167
REMARK   52  A    between atoms: _166  and  _169
REMARK   53  A    between atoms: _169  and  _170
REMARK   54  A    between atoms: _170  and  _171
REMARK   55  A    between atoms: _174  and  _176
REMARK   56  A    between atoms: _176  and  _177
REMARK   57  A    between atoms: _176  and  _179
REMARK   58  A    between atoms: _179  and  _180
REMARK   59  A    between atoms: _185  and  _187
REMARK   60  A    between atoms: _187  and  _188
REMARK   61  A    between atoms: _187  and  _190
REMARK   62  A    between atoms: _190  and  _191
REMARK   63  A    between atoms: _191  and  _192
REMARK   64  A    between atoms: _195  and  _197
REMARK   65  A    between atoms: _197  and  _198
REMARK   66  A    between atoms: _197  and  _200
REMARK   67  A    between atoms: _200  and  _201
REMARK   68  A    between atoms: _204  and  _206
REMARK   69  A    between atoms: _206  and  _207
REMARK   70  A    between atoms: _206  and  _209
REMARK   71  A    between atoms: _209  and  _210
REMARK   72  A    between atoms: _211  and  ZN_454
REMARK   73  A    between atoms: _215  and  _217
REMARK   74  A    between atoms: _217  and  _218
REMARK   75  A    between atoms: _217  and  _220
REMARK   76  A    between atoms: _220  and  _221
REMARK   77  A    between atoms: _224  and  _226
REMARK   78  A    between atoms: _226  and  _227
REMARK   79  A    between atoms: _226  and  _229
REMARK   80  A    between atoms: _232  and  _234
REMARK   81  A    between atoms: _234  and  _235
REMARK   82  A    between atoms: _234  and  _237
REMARK   83  A    between atoms: _237  and  _238
REMARK   84  A    between atoms: _243  and  _245
REMARK   85  A    between atoms: _245  and  _246
REMARK   86  A    between atoms: _245  and  _248
REMARK   87  A    between atoms: _248  and  _249
REMARK   88  A    between atoms: _255  and  _257
REMARK   89  A    between atoms: _257  and  _258
REMARK   90  A    between atoms: _260  and  _262
REMARK   91  A    between atoms: _262  and  _263
REMARK   92  A    between atoms: _266  and  _268
REMARK   93  A    between atoms: _268  and  _269
REMARK   94  A    between atoms: _268  and  _271
REMARK   95  A    between atoms: _274  and  _276
REMARK   96  A    between atoms: _276  and  _277
REMARK   97  A    between atoms: _276  and  _279
REMARK   98  A    between atoms: _279  and  _280
REMARK   99  A    between atoms: _280  and  _281
REMARK  100  A    between atoms: _286  and  _288
REMARK  101  A    between atoms: _288  and  _289
REMARK  102  A    between atoms: _288  and  _291
REMARK  103  A    between atoms: _291  and  _292
REMARK  104  A    between atoms: _295  and  _297
REMARK  105  A    between atoms: _297  and  _298
REMARK  106  A    between atoms: _301  and  _303
REMARK  107  A    between atoms: _303  and  _304
REMARK  108  A    between atoms: _303  and  _306
REMARK  109  A    between atoms: _309  and  _311
REMARK  110  A    between atoms: _311  and  _312
REMARK  111  A    between atoms: _311  and  _314
REMARK  112  A    between atoms: _314  and  _315
REMARK  113  A    between atoms: _318  and  _320
REMARK  114  A    between atoms: _320  and  _321
REMARK  115  A    between atoms: _323  and  _325
REMARK  116  A    between atoms: _325  and  _326
REMARK  117  A    between atoms: _328  and  _330
REMARK  118  A    between atoms: _330  and  _331
REMARK  119  A    between atoms: _330  and  _333
REMARK  120  A    between atoms: _333  and  _334
REMARK  121  A    between atoms: _336  and  _338
REMARK  122  A    between atoms: _338  and  _339
REMARK  123  A    between atoms: _338  and  _341
REMARK  124  A    between atoms: _341  and  _342
REMARK  125  A    between atoms: _345  and  _347
REMARK  126  A    between atoms: _347  and  _348
REMARK  127  A    between atoms: _347  and  _350
REMARK  128  A    between atoms: _350  and  _351
REMARK  129  A    between atoms: _354  and  _356
REMARK  130  A    between atoms: _356  and  _357
REMARK  131  A    between atoms: _356  and  _359
REMARK  132  A    between atoms: _359  and  _360
REMARK  133  A    between atoms: _364  and  _365
REMARK  134  A    between atoms: _371  and  _372
REMARK  135  A    between atoms: _377  and  _379
REMARK  136  A    between atoms: _379  and  _380
REMARK  137  A    between atoms: _379  and  _382
REMARK  138  A    between atoms: _382  and  _383
REMARK  139  A    between atoms: _386  and  _388
REMARK  140  A    between atoms: _388  and  _389
REMARK  141  A    between atoms: _388  and  _391
REMARK  142  A    between atoms: _391  and  _392
REMARK  143  A    between atoms: _395  and  _397
REMARK  144  A    between atoms: _397  and  _398
REMARK  145  A    between atoms: _397  and  _400
REMARK  146  A    between atoms: _402  and  _404
REMARK  147  A    between atoms: _404  and  _405
REMARK  148  A    between atoms: _404  and  _407
REMARK  149  A    between atoms: _410  and  _412
REMARK  150  A    between atoms: _412  and  _413
REMARK  151  A    between atoms: _412  and  _415
REMARK  152  A    between atoms: _415  and  _416
REMARK  153  A    between atoms: _426  and  _428
REMARK  154  A    between atoms: _428  and  _429
REMARK  155  A    between atoms: _428  and  _431
REMARK  156  A    between atoms: _431  and  _432
REMARK  157  A    between atoms: _437  and  _439
REMARK  158  A    between atoms: _439  and  _440
REMARK  159  A    between atoms: _439  and  _442
REMARK  160  A    between atoms: _442  and  _443
REMARK  161  A    between atoms: _443  and  _444
REMARK  162  A    between atoms: _444  and  _445
REMARK                            x       y       z     vdW  Elec       q    Type
REMARK                         _______ _______ _______ _____ _____    ______ ____
ROOT
ATOM      1  NE  ARG A   1      23.543  -4.702  21.175  0.00  0.00    -0.265 N 
ATOM      2  CZ  ARG A   1      23.714  -3.695  22.012  0.00  0.00    +0.342 C 
ATOM      3  NH2 ARG A   1      24.914  -3.467  22.503  0.00  0.00    -0.292 N 
ATOM      4 HH21 ARG A   1      25.064  -2.678  23.163  0.00  0.00    +0.255 HD
ATOM      5 HH22 ARG A   1      25.712  -4.076  22.231  0.00  0.00    +0.255 HD
ATOM      6  NH1 ARG A   1      22.702  -2.905  22.395  0.00  0.00    -0.292 N 
ATOM      7 HH11 ARG A   1      22.876  -2.121  23.056  0.00  0.00    +0.255 HD
ATOM      8 HH12 ARG A   1      21.743  -3.076  22.031  0.00  0.00    +0.255 HD
ATOM      9  HE  ARG A   1      24.361  -5.319  20.995  0.00  0.00    +0.259 HD
ENDROOT
BRANCH   1  10
ATOM     10  CD  ARG A   1      22.288  -5.020  20.477  0.00  0.00    +0.174 C 
BRANCH  10  11
ATOM     11  CG  ARG A   1      22.323  -6.428  19.902  0.00  0.00    +0.045 C 
BRANCH  11  12
ATOM     12  CB  ARG A   1      21.197  -6.594  18.898  0.00  0.00    +0.029 C 
BRANCH  12  13
ATOM     13  CA  ARG A   1      21.126  -8.069  18.431  0.00  0.00    +0.133 C 
BRANCH  13  14
ATOM     14  N   ARG A   1      20.149  -8.197  17.330  0.00  0.00    -0.239 NA
ATOM     15  H   ARG A   1      19.333  -7.552  17.316  0.00  0.00    +0.142 HD
ENDBRANCH  13  14
BRANCH  13  16
ATOM     16  C   ARG A   1      20.684  -9.012  19.550  0.00  0.00    +0.224 C 
ATOM     17  O   ARG A   1      19.539  -9.119  19.879  0.00  0.00    -0.287 OA
ENDBRANCH  13  16
ENDBRANCH  12  13
ENDBRANCH  11  12
ENDBRANCH  10  11
ENDBRANCH   1  10
TORSDOF 6
REMARK  Name = ../refined-set-2016/3ryx/3ryx_pocket.pdb
REMARK  162 active torsions:
REMARK  status: ('A' for Active; 'I' for Inactive)
REMARK    1  A    between atoms: _1  and  _3
REMARK    2  A    between atoms: _3  and  _4
REMARK    3  A    between atoms: _3  and  _6
REMARK    4  A    between atoms: _6  and  _7
REMARK    5  A    between atoms: _17  and  _19
REMARK    6  A    between atoms: _19  and  _20
REMARK    7  A    between atoms: _19  and  _22
REMARK    8  A    between atoms: _22  and  _23
REMARK    9  A    between atoms: _28  and  _29
REMARK   10  A    between atoms: _31  and  _33
REMARK   11  A    between atoms: _33  and  _34
REMARK   12  A    between atoms: _33  and  _36
REMARK   13  A    between atoms: _36  and  _37
REMARK   14  A    between atoms: _43  and  _45
REMARK   15  A    between atoms: _45  and  _46
REMARK   16  A    between atoms: _45  and  _48
REMARK   17  A    between atoms: _48  and  _49
REMARK   18  A    between atoms: _52  and  _53
REMARK   19  A    between atoms: _58  and  _60
REMARK   20  A    between atoms: _60  and  _61
REMARK   21  A    between atoms: _60  and  _63
REMARK   22  A    between atoms: _63  and  _64
REMARK   23  A    between atoms: _69  and  _71
REMARK   24  A    between atoms: _71  and  _72
REMARK   25  A    between atoms: _71  and  _74
REMARK   26  A    between atoms: _74  and  _75
REMARK   27  A    between atoms: _80  and  _82
REMARK   28  A    between atoms: _82  and  _83
REMARK   29  A    between atoms: _86  and  _88
REMARK   30  A    between atoms: _88  and  _89
REMARK   31  A    between atoms: _88  and  _91
REMARK   32  A    between atoms: _91  and  _92
REMARK   33  A    between atoms: _97  and  _99
REMARK   34  A    between atoms: _99  and  _100
REMARK   35  A    between atoms: _99  and  _102
REMARK   36  A    between atoms: _102  and  _103
REMARK   37  A    between atoms: _106  and  _108
REMARK   38  A    between atoms: _108  and  _109
REMARK   39  A    between atoms: _108  and  _111
REMARK   40  A    between atoms: _111  and  _112
REMARK   41  A    between atoms: _112  and  _113
REMARK   42  A    between atoms: _118  and  _120
REMARK   43  A    between atoms: _120  and  _121
REMARK   44  A    between atoms: _120  and  _123
REMARK   45  A    between atoms: _123  and  _124
REMARK   46  A    between atoms: _130  and  _132
REMARK   47  A    between atoms: _143  and  _146
REMARK   48  A    between atoms: _146  and  _147
REMARK   49  A    between atoms: _155  and  _156
REMARK   50  A    between atoms: _164  and  _166
REMARK   51  A    between atoms: _166  and  _167
REMARK   52  A    between atoms: _166  and  _169
REMARK   53  A    between atoms: _169  and  _170
REMARK   54  A    between atoms: _170  and  _171
REMARK   55  A    between atoms: _174  and  _176
REMARK   56  A    between atoms: _176  and  _177
REMARK   57  A    between atoms: _176  and  _179
REMARK   58  A    between atoms: _179  and  _180
REMARK   59  A    between atoms: _185  and  _187
REMARK   60  A    between atoms: _187  and  _188
REMARK   61  A    between atoms: _187  and  _190
REMARK   62  A    between atoms: _190  and  _191
REMARK   63  A    between atoms: _191  and  _192
REMARK   64  A    between atoms: _195  and  _197
REMARK   65  A    between atoms: _197  and  _198
REMARK   66  A    between atoms: _197  and  _200
REMARK   67  A    between atoms: _200  and  _201
REMARK   68  A    between atoms: _204  and  _206
REMARK   69  A    between atoms: _206  and  _207
REMARK   70  A    between atoms: _206  and  _209
REMARK   71  A    between atoms: _209  and  _210
REMARK   72  A    between atoms: _211  and  ZN_454
REMARK   73  A    between atoms: _215  and  _217
REMARK   74  A    between atoms: _217  and  _218
REMARK   75  A    between atoms: _217  and  _220
REMARK   76  A    between atoms: _220  and  _221
REMARK   77  A    between atoms: _224  and  _226
REMARK   78  A    between atoms: _226  and  _227
REMARK   79  A    between atoms: _226  and  _229
REMARK   80  A    between atoms: _232  and  _234
REMARK   81  A    between atoms: _234  and  _235
REMARK   82  A    between atoms: _234  and  _237
REMARK   83  A    between atoms: _237  and  _238
REMARK   84  A    between atoms: _243  and  _245
REMARK   85  A    between atoms: _245  and  _246
REMARK   86  A    between atoms: _245  and  _248
REMARK   87  A    between atoms: _248  and  _249
REMARK   88  A    between atoms: _255  and  _257
REMARK   89  A    between atoms: _257  and  _258
REMARK   90  A    between atoms: _260  and  _262
REMARK   91  A    between atoms: _262  and  _263
REMARK   92  A    between atoms: _266  and  _268
REMARK   93  A    between atoms: _268  and  _269
REMARK   94  A    between atoms: _268  and  _271
REMARK   95  A    between atoms: _274  and  _276
REMARK   96  A    between atoms: _276  and  _277
REMARK   97  A    between atoms: _276  and  _279
REMARK   98  A    between atoms: _279  and  _280
REMARK   99  A    between atoms: _280  and  _281
REMARK  100  A    between atoms: _286  and  _288
REMARK  101  A    between atoms: _288  and  _289
REMARK  102  A    between atoms: _288  and  _291
REMARK  103  A    between atoms: _291  and  _292
REMARK  104  A    between atoms: _295  and  _297
REMARK  105  A    between atoms: _297  and  _298
REMARK  106  A    between atoms: _301  and  _303
REMARK  107  A    between atoms: _303  and  _304
REMARK  108  A    between atoms: _303  and  _306
REMARK  109  A    between atoms: _309  and  _311
REMARK  110  A    between atoms: _311  and  _312
REMARK  111  A    between atoms: _311  and  _314
REMARK  112  A    between atoms: _314  and  _315
REMARK  113  A    between atoms: _318  and  _320
REMARK  114  A    between atoms: _320  and  _321
REMARK  115  A    between atoms: _323  and  _325
REMARK  116  A    between atoms: _325  and  _326
REMARK  117  A    between atoms: _328  and  _330
REMARK  118  A    between atoms: _330  and  _331
REMARK  119  A    between atoms: _330  and  _333
REMARK  120  A    between atoms: _333  and  _334
REMARK  121  A    between atoms: _336  and  _338
REMARK  122  A    between atoms: _338  and  _339
REMARK  123  A    between atoms: _338  and  _341
REMARK  124  A    between atoms: _341  and  _342
REMARK  125  A    between atoms: _345  and  _347
REMARK  126  A    between atoms: _347  and  _348
REMARK  127  A    between atoms: _347  and  _350
REMARK  128  A    between atoms: _350  and  _351
REMARK  129  A    between atoms: _354  and  _356
REMARK  130  A    between atoms: _356  and  _357
REMARK  131  A    between atoms: _356  and  _359
REMARK  132  A    between atoms: _359  and  _360
REMARK  133  A    between atoms: _364  and  _365
REMARK  134  A    between atoms: _371  and  _372
REMARK  135  A    between atoms: _377  and  _379
REMARK  136  A    between atoms: _379  and  _380
REMARK  137  A    between atoms: _379  and  _382
REMARK  138  A    between atoms: _382  and  _383
REMARK  139  A    between atoms: _386  and  _388
REMARK  140  A    between atoms: _388  and  _389
REMARK  141  A    between atoms: _388  and  _391
REMARK  142  A    between atoms: _391  and  _392
REMARK  143  A    between atoms: _395  and  _397
REMARK  144  A    between atoms: _397  and  _398
REMARK  145  A    between atoms: _397  and  _400
REMARK  146  A    between atoms: _402  and  _404
REMARK  147  A    between atoms: _404  and  _405
REMARK  148  A    between atoms: _404  and  _407
REMARK  149  A    between atoms: _410  and  _412
REMARK  150  A    between atoms: _412  and  _413
REMARK  151  A    between atoms: _412  and  _415
REMARK  152  A    between atoms: _415  and  _416
REMARK  153  A    between atoms: _426  and  _428
REMARK  154  A    between atoms: _428  and  _429
REMARK  155  A    between atoms: _428  and  _431
REMARK  156  A    between atoms: _431  and  _432
REMARK  157  A    between atoms: _437  and  _439
REMARK  158  A    between atoms: _439  and  _440
REMARK  159  A    between atoms: _439  and  _442
REMARK  160  A    between atoms: _442  and  _443
REMARK  161  A    between atoms: _443  and  _444
REMARK  162  A    between atoms: _444  and  _445
REMARK                            x       y       z     vdW  Elec       q    Type
REMARK                         _______ _______ _______ _____ _____    ______ ____
ROOT
ATOM      1  O   HOH     1      20.607   2.632  13.457  0.00  0.00    +0.000 OA
ENDROOT
TORSDOF 0
REMARK  Name = ../refined-set-2016/3ryx/3ryx_pocket.pdb
REMARK  162 active torsions:
REMARK  status: ('A' for Active; 'I' for Inactive)
REMARK    1  A    between atoms: _1  and  _3
REMARK    2  A    between atoms: _3  and  _4
REMARK    3  A    between atoms: _3  and  _6
REMARK    4  A    between atoms: _6  and  _7
REMARK    5  A    between atoms: _17  and  _19
REMARK    6  A    between atoms: _19  and  _20
REMARK    7  A    between atoms: _19  and  _22
REMARK    8  A    between atoms: _22  and  _23
REMARK    9  A    between atoms: _28  and  _29
REMARK   10  A    between atoms: _31  and  _33
REMARK   11  A    between atoms: _33  and  _34
REMARK   12  A    between atoms: _33  and  _36
REMARK   13  A    between atoms: _36  and  _37
REMARK   14  A    between atoms: _43  and  _45
REMARK   15  A    between atoms: _45  and  _46
REMARK   16  A    between atoms: _45  and  _48
REMARK   17  A    between atoms: _48  and  _49
REMARK   18  A    between atoms: _52  and  _53
REMARK   19  A    between atoms: _58  and  _60
REMARK   20  A    between atoms: _60  and  _61
REMARK   21  A    between atoms: _60  and  _63
REMARK   22  A    between atoms: _63  and  _64
REMARK   23  A    between atoms: _69  and  _71
REMARK   24  A    between atoms: _71  and  _72
REMARK   25  A    between atoms: _71  and  _74
REMARK   26  A    between atoms: _74  and  _75
REMARK   27  A    between atoms: _80  and  _82
REMARK   28  A    between atoms: _82  and  _83
REMARK   29  A    between atoms: _86  and  _88
REMARK   30  A    between atoms: _88  and  _89
REMARK   31  A    between atoms: _88  and  _91
REMARK   32  A    between atoms: _91  and  _92
REMARK   33  A    between atoms: _97  and  _99
REMARK   34  A    between atoms: _99  and  _100
REMARK   35  A    between atoms: _99  and  _102
REMARK   36  A    between atoms: _102  and  _103
REMARK   37  A    between atoms: _106  and  _108
REMARK   38  A    between atoms: _108  and  _109
REMARK   39  A    between atoms: _108  and  _111
REMARK   40  A    between atoms: _111  and  _112
REMARK   41  A    between atoms: _112  and  _113
REMARK   42  A    between atoms: _118  and  _120
REMARK   43  A    between atoms: _120  and  _121
REMARK   44  A    between atoms: _120  and  _123
REMARK   45  A    between atoms: _123  and  _124
REMARK   46  A    between atoms: _130  and  _132
REMARK   47  A    between atoms: _143  and  _146
REMARK   48  A    between atoms: _146  and  _147
REMARK   49  A    between atoms: _155  and  _156
REMARK   50  A    between atoms: _164  and  _166
REMARK   51  A    between atoms: _166  and  _167
REMARK   52  A    between atoms: _166  and  _169
REMARK   53  A    between atoms: _169  and  _170
REMARK   54  A    between atoms: _170  and  _171
REMARK   55  A    between atoms: _174  and  _176
REMARK   56  A    between atoms: _176  and  _177
REMARK   57  A    between atoms: _176  and  _179
REMARK   58  A    between atoms: _179  and  _180
REMARK   59  A    between atoms: _185  and  _187
REMARK   60  A    between atoms: _187  and  _188
REMARK   61  A    between atoms: _187  and  _190
REMARK   62  A    between atoms: _190  and  _191
REMARK   63  A    between atoms: _191  and  _192
REMARK   64  A    between atoms: _195  and  _197
REMARK   65  A    between atoms: _197  and  _198
REMARK   66  A    between atoms: _197  and  _200
REMARK   67  A    between atoms: _200  and  _201
REMARK   68  A    between atoms: _204  and  _206
REMARK   69  A    between atoms: _206  and  _207
REMARK   70  A    between atoms: _206  and  _209
REMARK   71  A    between atoms: _209  and  _210
REMARK   72  A    between atoms: _211  and  ZN_454
REMARK   73  A    between atoms: _215  and  _217
REMARK   74  A    between atoms: _217  and  _218
REMARK   75  A    between atoms: _217  and  _220
REMARK   76  A    between atoms: _220  and  _221
REMARK   77  A    between atoms: _224  and  _226
REMARK   78  A    between atoms: _226  and  _227
REMARK   79  A    between atoms: _226  and  _229
REMARK   80  A    between atoms: _232  and  _234
REMARK   81  A    between atoms: _234  and  _235
REMARK   82  A    between atoms: _234  and  _237
REMARK   83  A    between atoms: _237  and  _238
REMARK   84  A    between atoms: _243  and  _245
REMARK   85  A    between atoms: _245  and  _246
REMARK   86  A    between atoms: _245  and  _248
REMARK   87  A    between atoms: _248  and  _249
REMARK   88  A    between atoms: _255  and  _257
REMARK   89  A    between atoms: _257  and  _258
REMARK   90  A    between atoms: _260  and  _262
REMARK   91  A    between atoms: _262  and  _263
REMARK   92  A    between atoms: _266  and  _268
REMARK   93  A    between atoms: _268  and  _269
REMARK   94  A    between atoms: _268  and  _271
REMARK   95  A    between atoms: _274  and  _276
REMARK   96  A    between atoms: _276  and  _277
REMARK   97  A    between atoms: _276  and  _279
REMARK   98  A    between atoms: _279  and  _280
REMARK   99  A    between atoms: _280  and  _281
REMARK  100  A    between atoms: _286  and  _288
REMARK  101  A    between atoms: _288  and  _289
REMARK  102  A    between atoms: _288  and  _291
REMARK  103  A    between atoms: _291  and  _292
REMARK  104  A    between atoms: _295  and  _297
REMARK  105  A    between atoms: _297  and  _298
REMARK  106  A    between atoms: _301  and  _303
REMARK  107  A    between atoms: _303  and  _304
REMARK  108  A    between atoms: _303  and  _306
REMARK  109  A    between atoms: _309  and  _311
REMARK  110  A    between atoms: _311  and  _312
REMARK  111  A    between atoms: _311  and  _314
REMARK  112  A    between atoms: _314  and  _315
REMARK  113  A    between atoms: _318  and  _320
REMARK  114  A    between atoms: _320  and  _321
REMARK  115  A    between atoms: _323  and  _325
REMARK  116  A    between atoms: _325  and  _326
REMARK  117  A    between atoms: _328  and  _330
REMARK  118  A    between atoms: _330  and  _331
REMARK  119  A    between atoms: _330  and  _333
REMARK  120  A    between atoms: _333  and  _334
REMARK  121  A    between atoms: _336  and  _338
REMARK  122  A    between atoms: _338  and  _339
REMARK  123  A    between atoms: _338  and  _341
REMARK  124  A    between atoms: _341  and  _342
REMARK  125  A    between atoms: _345  and  _347
REMARK  126  A    between atoms: _347  and  _348
REMARK  127  A    between atoms: _347  and  _350
REMARK  128  A    between atoms: _350  and  _351
REMARK  129  A    between atoms: _354  and  _356
REMARK  130  A    between atoms: _356  and  _357
REMARK  131  A    between atoms: _356  and  _359
REMARK  132  A    between atoms: _359  and  _360
REMARK  133  A    between atoms: _364  and  _365
REMARK  134  A    between atoms: _371  and  _372
REMARK  135  A    between atoms: _377  and  _379
REMARK  136  A    between atoms: _379  and  _380
REMARK  137  A    between atoms: _379  and  _382
REMARK  138  A    between atoms: _382  and  _383
REMARK  139  A    between atoms: _386  and  _388
REMARK  140  A    between atoms: _388  and  _389
REMARK  141  A    between atoms: _388  and  _391
REMARK  142  A    between atoms: _391  and  _392
REMARK  143  A    between atoms: _395  and  _397
REMARK  144  A    between atoms: _397  and  _398
REMARK  145  A    between atoms: _397  and  _400
REMARK  146  A    between atoms: _402  and  _404
REMARK  147  A    between atoms: _404  and  _405
REMARK  148  A    between atoms: _404  and  _407
REMARK  149  A    between atoms: _410  and  _412
REMARK  150  A    between atoms: _412  and  _413
REMARK  151  A    between atoms: _412  and  _415
REMARK  152  A    between atoms: _415  and  _416
REMARK  153  A    between atoms: _426  and  _428
REMARK  154  A    between atoms: _428  and  _429
REMARK  155  A    between atoms: _428  and  _431
REMARK  156  A    between atoms: _431  and  _432
REMARK  157  A    between atoms: _437  and  _439
REMARK  158  A    between atoms: _439  and  _440
REMARK  159  A    between atoms: _439  and  _442
REMARK  160  A    between atoms: _442  and  _443
REMARK  161  A    between atoms: _443  and  _444
REMARK  162  A    between atoms: _444  and  _445
REMARK                            x       y       z     vdW  Elec       q    Type
REMARK                         _______ _______ _______ _____ _____    ______ ____
ROOT
ATOM      1  O   HOH     1      17.307  -0.682  13.717  0.00  0.00    +0.000 OA
ENDROOT
TORSDOF 0
REMARK  Name = ../refined-set-2016/3ryx/3ryx_pocket.pdb
REMARK  162 active torsions:
REMARK  status: ('A' for Active; 'I' for Inactive)
REMARK    1  A    between atoms: _1  and  _3
REMARK    2  A    between atoms: _3  and  _4
REMARK    3  A    between atoms: _3  and  _6
REMARK    4  A    between atoms: _6  and  _7
REMARK    5  A    between atoms: _17  and  _19
REMARK    6  A    between atoms: _19  and  _20
REMARK    7  A    between atoms: _19  and  _22
REMARK    8  A    between atoms: _22  and  _23
REMARK    9  A    between atoms: _28  and  _29
REMARK   10  A    between atoms: _31  and  _33
REMARK   11  A    between atoms: _33  and  _34
REMARK   12  A    between atoms: _33  and  _36
REMARK   13  A    between atoms: _36  and  _37
REMARK   14  A    between atoms: _43  and  _45
REMARK   15  A    between atoms: _45  and  _46
REMARK   16  A    between atoms: _45  and  _48
REMARK   17  A    between atoms: _48  and  _49
REMARK   18  A    between atoms: _52  and  _53
REMARK   19  A    between atoms: _58  and  _60
REMARK   20  A    between atoms: _60  and  _61
REMARK   21  A    between atoms: _60  and  _63
REMARK   22  A    between atoms: _63  and  _64
REMARK   23  A    between atoms: _69  and  _71
REMARK   24  A    between atoms: _71  and  _72
REMARK   25  A    between atoms: _71  and  _74
REMARK   26  A    between atoms: _74  and  _75
REMARK   27  A    between atoms: _80  and  _82
REMARK   28  A    between atoms: _82  and  _83
REMARK   29  A    between atoms: _86  and  _88
REMARK   30  A    between atoms: _88  and  _89
REMARK   31  A    between atoms: _88  and  _91
REMARK   32  A    between atoms: _91  and  _92
REMARK   33  A    between atoms: _97  and  _99
REMARK   34  A    between atoms: _99  and  _100
REMARK   35  A    between atoms: _99  and  _102
REMARK   36  A    between atoms: _102  and  _103
REMARK   37  A    between atoms: _106  and  _108
REMARK   38  A    between atoms: _108  and  _109
REMARK   39  A    between atoms: _108  and  _111
REMARK   40  A    between atoms: _111  and  _112
REMARK   41  A    between atoms: _112  and  _113
REMARK   42  A    between atoms: _118  and  _120
REMARK   43  A    between atoms: _120  and  _121
REMARK   44  A    between atoms: _120  and  _123
REMARK   45  A    between atoms: _123  and  _124
REMARK   46  A    between atoms: _130  and  _132
REMARK   47  A    between atoms: _143  and  _146
REMARK   48  A    between atoms: _146  and  _147
REMARK   49  A    between atoms: _155  and  _156
REMARK   50  A    between atoms: _164  and  _166
REMARK   51  A    between atoms: _166  and  _167
REMARK   52  A    between atoms: _166  and  _169
REMARK   53  A    between atoms: _169  and  _170
REMARK   54  A    between atoms: _170  and  _171
REMARK   55  A    between atoms: _174  and  _176
REMARK   56  A    between atoms: _176  and  _177
REMARK   57  A    between atoms: _176  and  _179
REMARK   58  A    between atoms: _179  and  _180
REMARK   59  A    between atoms: _185  and  _187
REMARK   60  A    between atoms: _187  and  _188
REMARK   61  A    between atoms: _187  and  _190
REMARK   62  A    between atoms: _190  and  _191
REMARK   63  A    between atoms: _191  and  _192
REMARK   64  A    between atoms: _195  and  _197
REMARK   65  A    between atoms: _197  and  _198
REMARK   66  A    between atoms: _197  and  _200
REMARK   67  A    between atoms: _200  and  _201
REMARK   68  A    between atoms: _204  and  _206
REMARK   69  A    between atoms: _206  and  _207
REMARK   70  A    between atoms: _206  and  _209
REMARK   71  A    between atoms: _209  and  _210
REMARK   72  A    between atoms: _211  and  ZN_454
REMARK   73  A    between atoms: _215  and  _217
REMARK   74  A    between atoms: _217  and  _218
REMARK   75  A    between atoms: _217  and  _220
REMARK   76  A    between atoms: _220  and  _221
REMARK   77  A    between atoms: _224  and  _226
REMARK   78  A    between atoms: _226  and  _227
REMARK   79  A    between atoms: _226  and  _229
REMARK   80  A    between atoms: _232  and  _234
REMARK   81  A    between atoms: _234  and  _235
REMARK   82  A    between atoms: _234  and  _237
REMARK   83  A    between atoms: _237  and  _238
REMARK   84  A    between atoms: _243  and  _245
REMARK   85  A    between atoms: _245  and  _246
REMARK   86  A    between atoms: _245  and  _248
REMARK   87  A    between atoms: _248  and  _249
REMARK   88  A    between atoms: _255  and  _257
REMARK   89  A    between atoms: _257  and  _258
REMARK   90  A    between atoms: _260  and  _262
REMARK   91  A    between atoms: _262  and  _263
REMARK   92  A    between atoms: _266  and  _268
REMARK   93  A    between atoms: _268  and  _269
REMARK   94  A    between atoms: _268  and  _271
REMARK   95  A    between atoms: _274  and  _276
REMARK   96  A    between atoms: _276  and  _277
REMARK   97  A    between atoms: _276  and  _279
REMARK   98  A    between atoms: _279  and  _280
REMARK   99  A    between atoms: _280  and  _281
REMARK  100  A    between atoms: _286  and  _288
REMARK  101  A    between atoms: _288  and  _289
REMARK  102  A    between atoms: _288  and  _291
REMARK  103  A    between atoms: _291  and  _292
REMARK  104  A    between atoms: _295  and  _297
REMARK  105  A    between atoms: _297  and  _298
REMARK  106  A    between atoms: _301  and  _303
REMARK  107  A    between atoms: _303  and  _304
REMARK  108  A    between atoms: _303  and  _306
REMARK  109  A    between atoms: _309  and  _311
REMARK  110  A    between atoms: _311  and  _312
REMARK  111  A    between atoms: _311  and  _314
REMARK  112  A    between atoms: _314  and  _315
REMARK  113  A    between atoms: _318  and  _320
REMARK  114  A    between atoms: _320  and  _321
REMARK  115  A    between atoms: _323  and  _325
REMARK  116  A    between atoms: _325  and  _326
REMARK  117  A    between atoms: _328  and  _330
REMARK  118  A    between atoms: _330  and  _331
REMARK  119  A    between atoms: _330  and  _333
REMARK  120  A    between atoms: _333  and  _334
REMARK  121  A    between atoms: _336  and  _338
REMARK  122  A    between atoms: _338  and  _339
REMARK  123  A    between atoms: _338  and  _341
REMARK  124  A    between atoms: _341  and  _342
REMARK  125  A    between atoms: _345  and  _347
REMARK  126  A    between atoms: _347  and  _348
REMARK  127  A    between atoms: _347  and  _350
REMARK  128  A    between atoms: _350  and  _351
REMARK  129  A    between atoms: _354  and  _356
REMARK  130  A    between atoms: _356  and  _357
REMARK  131  A    between atoms: _356  and  _359
REMARK  132  A    between atoms: _359  and  _360
REMARK  133  A    between atoms: _364  and  _365
REMARK  134  A    between atoms: _371  and  _372
REMARK  135  A    between atoms: _377  and  _379
REMARK  136  A    between atoms: _379  and  _380
REMARK  137  A    between atoms: _379  and  _382
REMARK  138  A    between atoms: _382  and  _383
REMARK  139  A    between atoms: _386  and  _388
REMARK  140  A    between atoms: _388  and  _389
REMARK  141  A    between atoms: _388  and  _391
REMARK  142  A    between atoms: _391  and  _392
REMARK  143  A    between atoms: _395  and  _397
REMARK  144  A    between atoms: _397  and  _398
REMARK  145  A    between atoms: _397  and  _400
REMARK  146  A    between atoms: _402  and  _404
REMARK  147  A    between atoms: _404  and  _405
REMARK  148  A    between atoms: _404  and  _407
REMARK  149  A    between atoms: _410  and  _412
REMARK  150  A    between atoms: _412  and  _413
REMARK  151  A    between atoms: _412  and  _415
REMARK  152  A    between atoms: _415  and  _416
REMARK  153  A    between atoms: _426  and  _428
REMARK  154  A    between atoms: _428  and  _429
REMARK  155  A    between atoms: _428  and  _431
REMARK  156  A    between atoms: _431  and  _432
REMARK  157  A    between atoms: _437  and  _439
REMARK  158  A    between atoms: _439  and  _440
REMARK  159  A    between atoms: _439  and  _442
REMARK  160  A    between atoms: _442  and  _443
REMARK  161  A    between atoms: _443  and  _444
REMARK  162  A    between atoms: _444  and  _445
REMARK                            x       y       z     vdW  Elec       q    Type
REMARK                         _______ _______ _______ _____ _____    ______ ____
ROOT
ATOM      1  O   HOH     1      17.519   3.873   7.017  0.00  0.00    +0.000 OA
ENDROOT
TORSDOF 0
REMARK  Name = ../refined-set-2016/3ryx/3ryx_pocket.pdb
REMARK  162 active torsions:
REMARK  status: ('A' for Active; 'I' for Inactive)
REMARK    1  A    between atoms: _1  and  _3
REMARK    2  A    between atoms: _3  and  _4
REMARK    3  A    between atoms: _3  and  _6
REMARK    4  A    between atoms: _6  and  _7
REMARK    5  A    between atoms: _17  and  _19
REMARK    6  A    between atoms: _19  and  _20
REMARK    7  A    between atoms: _19  and  _22
REMARK    8  A    between atoms: _22  and  _23
REMARK    9  A    between atoms: _28  and  _29
REMARK   10  A    between atoms: _31  and  _33
REMARK   11  A    between atoms: _33  and  _34
REMARK   12  A    between atoms: _33  and  _36
REMARK   13  A    between atoms: _36  and  _37
REMARK   14  A    between atoms: _43  and  _45
REMARK   15  A    between atoms: _45  and  _46
REMARK   16  A    between atoms: _45  and  _48
REMARK   17  A    between atoms: _48  and  _49
REMARK   18  A    between atoms: _52  and  _53
REMARK   19  A    between atoms: _58  and  _60
REMARK   20  A    between atoms: _60  and  _61
REMARK   21  A    between atoms: _60  and  _63
REMARK   22  A    between atoms: _63  and  _64
REMARK   23  A    between atoms: _69  and  _71
REMARK   24  A    between atoms: _71  and  _72
REMARK   25  A    between atoms: _71  and  _74
REMARK   26  A    between atoms: _74  and  _75
REMARK   27  A    between atoms: _80  and  _82
REMARK   28  A    between atoms: _82  and  _83
REMARK   29  A    between atoms: _86  and  _88
REMARK   30  A    between atoms: _88  and  _89
REMARK   31  A    between atoms: _88  and  _91
REMARK   32  A    between atoms: _91  and  _92
REMARK   33  A    between atoms: _97  and  _99
REMARK   34  A    between atoms: _99  and  _100
REMARK   35  A    between atoms: _99  and  _102
REMARK   36  A    between atoms: _102  and  _103
REMARK   37  A    between atoms: _106  and  _108
REMARK   38  A    between atoms: _108  and  _109
REMARK   39  A    between atoms: _108  and  _111
REMARK   40  A    between atoms: _111  and  _112
REMARK   41  A    between atoms: _112  and  _113
REMARK   42  A    between atoms: _118  and  _120
REMARK   43  A    between atoms: _120  and  _121
REMARK   44  A    between atoms: _120  and  _123
REMARK   45  A    between atoms: _123  and  _124
REMARK   46  A    between atoms: _130  and  _132
REMARK   47  A    between atoms: _143  and  _146
REMARK   48  A    between atoms: _146  and  _147
REMARK   49  A    between atoms: _155  and  _156
REMARK   50  A    between atoms: _164  and  _166
REMARK   51  A    between atoms: _166  and  _167
REMARK   52  A    between atoms: _166  and  _169
REMARK   53  A    between atoms: _169  and  _170
REMARK   54  A    between atoms: _170  and  _171
REMARK   55  A    between atoms: _174  and  _176
REMARK   56  A    between atoms: _176  and  _177
REMARK   57  A    between atoms: _176  and  _179
REMARK   58  A    between atoms: _179  and  _180
REMARK   59  A    between atoms: _185  and  _187
REMARK   60  A    between atoms: _187  and  _188
REMARK   61  A    between atoms: _187  and  _190
REMARK   62  A    between atoms: _190  and  _191
REMARK   63  A    between atoms: _191  and  _192
REMARK   64  A    between atoms: _195  and  _197
REMARK   65  A    between atoms: _197  and  _198
REMARK   66  A    between atoms: _197  and  _200
REMARK   67  A    between atoms: _200  and  _201
REMARK   68  A    between atoms: _204  and  _206
REMARK   69  A    between atoms: _206  and  _207
REMARK   70  A    between atoms: _206  and  _209
REMARK   71  A    between atoms: _209  and  _210
REMARK   72  A    between atoms: _211  and  ZN_454
REMARK   73  A    between atoms: _215  and  _217
REMARK   74  A    between atoms: _217  and  _218
REMARK   75  A    between atoms: _217  and  _220
REMARK   76  A    between atoms: _220  and  _221
REMARK   77  A    between atoms: _224  and  _226
REMARK   78  A    between atoms: _226  and  _227
REMARK   79  A    between atoms: _226  and  _229
REMARK   80  A    between atoms: _232  and  _234
REMARK   81  A    between atoms: _234  and  _235
REMARK   82  A    between atoms: _234  and  _237
REMARK   83  A    between atoms: _237  and  _238
REMARK   84  A    between atoms: _243  and  _245
REMARK   85  A    between atoms: _245  and  _246
REMARK   86  A    between atoms: _245  and  _248
REMARK   87  A    between atoms: _248  and  _249
REMARK   88  A    between atoms: _255  and  _257
REMARK   89  A    between atoms: _257  and  _258
REMARK   90  A    between atoms: _260  and  _262
REMARK   91  A    between atoms: _262  and  _263
REMARK   92  A    between atoms: _266  and  _268
REMARK   93  A    between atoms: _268  and  _269
REMARK   94  A    between atoms: _268  and  _271
REMARK   95  A    between atoms: _274  and  _276
REMARK   96  A    between atoms: _276  and  _277
REMARK   97  A    between atoms: _276  and  _279
REMARK   98  A    between atoms: _279  and  _280
REMARK   99  A    between atoms: _280  and  _281
REMARK  100  A    between atoms: _286  and  _288
REMARK  101  A    between atoms: _288  and  _289
REMARK  102  A    between atoms: _288  and  _291
REMARK  103  A    between atoms: _291  and  _292
REMARK  104  A    between atoms: _295  and  _297
REMARK  105  A    between atoms: _297  and  _298
REMARK  106  A    between atoms: _301  and  _303
REMARK  107  A    between atoms: _303  and  _304
REMARK  108  A    between atoms: _303  and  _306
REMARK  109  A    between atoms: _309  and  _311
REMARK  110  A    between atoms: _311  and  _312
REMARK  111  A    between atoms: _311  and  _314
REMARK  112  A    between atoms: _314  and  _315
REMARK  113  A    between atoms: _318  and  _320
REMARK  114  A    between atoms: _320  and  _321
REMARK  115  A    between atoms: _323  and  _325
REMARK  116  A    between atoms: _325  and  _326
REMARK  117  A    between atoms: _328  and  _330
REMARK  118  A    between atoms: _330  and  _331
REMARK  119  A    between atoms: _330  and  _333
REMARK  120  A    between atoms: _333  and  _334
REMARK  121  A    between atoms: _336  and  _338
REMARK  122  A    between atoms: _338  and  _339
REMARK  123  A    between atoms: _338  and  _341
REMARK  124  A    between atoms: _341  and  _342
REMARK  125  A    between atoms: _345  and  _347
REMARK  126  A    between atoms: _347  and  _348
REMARK  127  A    between atoms: _347  and  _350
REMARK  128  A    between atoms: _350  and  _351
REMARK  129  A    between atoms: _354  and  _356
REMARK  130  A    between atoms: _356  and  _357
REMARK  131  A    between atoms: _356  and  _359
REMARK  132  A    between atoms: _359  and  _360
REMARK  133  A    between atoms: _364  and  _365
REMARK  134  A    between atoms: _371  and  _372
REMARK  135  A    between atoms: _377  and  _379
REMARK  136  A    between atoms: _379  and  _380
REMARK  137  A    between atoms: _379  and  _382
REMARK  138  A    between atoms: _382  and  _383
REMARK  139  A    between atoms: _386  and  _388
REMARK  140  A    between atoms: _388  and  _389
REMARK  141  A    between atoms: _388  and  _391
REMARK  142  A    between atoms: _391  and  _392
REMARK  143  A    between atoms: _395  and  _397
REMARK  144  A    between atoms: _397  and  _398
REMARK  145  A    between atoms: _397  and  _400
REMARK  146  A    between atoms: _402  and  _404
REMARK  147  A    between atoms: _404  and  _405
REMARK  148  A    between atoms: _404  and  _407
REMARK  149  A    between atoms: _410  and  _412
REMARK  150  A    between atoms: _412  and  _413
REMARK  151  A    between atoms: _412  and  _415
REMARK  152  A    between atoms: _415  and  _416
REMARK  153  A    between atoms: _426  and  _428
REMARK  154  A    between atoms: _428  and  _429
REMARK  155  A    between atoms: _428  and  _431
REMARK  156  A    between atoms: _431  and  _432
REMARK  157  A    between atoms: _437  and  _439
REMARK  158  A    between atoms: _439  and  _440
REMARK  159  A    between atoms: _439  and  _442
REMARK  160  A    between atoms: _442  and  _443
REMARK  161  A    between atoms: _443  and  _444
REMARK  162  A    between atoms: _444  and  _445
REMARK                            x       y       z     vdW  Elec       q    Type
REMARK                         _______ _______ _______ _____ _____    ______ ____
ROOT
ATOM      1  O   HOH     1      19.972  -5.069  15.885  0.00  0.00    +0.000 OA
ENDROOT
TORSDOF 0
REMARK  Name = ../refined-set-2016/3ryx/3ryx_pocket.pdb
REMARK  162 active torsions:
REMARK  status: ('A' for Active; 'I' for Inactive)
REMARK    1  A    between atoms: _1  and  _3
REMARK    2  A    between atoms: _3  and  _4
REMARK    3  A    between atoms: _3  and  _6
REMARK    4  A    between atoms: _6  and  _7
REMARK    5  A    between atoms: _17  and  _19
REMARK    6  A    between atoms: _19  and  _20
REMARK    7  A    between atoms: _19  and  _22
REMARK    8  A    between atoms: _22  and  _23
REMARK    9  A    between atoms: _28  and  _29
REMARK   10  A    between atoms: _31  and  _33
REMARK   11  A    between atoms: _33  and  _34
REMARK   12  A    between atoms: _33  and  _36
REMARK   13  A    between atoms: _36  and  _37
REMARK   14  A    between atoms: _43  and  _45
REMARK   15  A    between atoms: _45  and  _46
REMARK   16  A    between atoms: _45  and  _48
REMARK   17  A    between atoms: _48  and  _49
REMARK   18  A    between atoms: _52  and  _53
REMARK   19  A    between atoms: _58  and  _60
REMARK   20  A    between atoms: _60  and  _61
REMARK   21  A    between atoms: _60  and  _63
REMARK   22  A    between atoms: _63  and  _64
REMARK   23  A    between atoms: _69  and  _71
REMARK   24  A    between atoms: _71  and  _72
REMARK   25  A    between atoms: _71  and  _74
REMARK   26  A    between atoms: _74  and  _75
REMARK   27  A    between atoms: _80  and  _82
REMARK   28  A    between atoms: _82  and  _83
REMARK   29  A    between atoms: _86  and  _88
REMARK   30  A    between atoms: _88  and  _89
REMARK   31  A    between atoms: _88  and  _91
REMARK   32  A    between atoms: _91  and  _92
REMARK   33  A    between atoms: _97  and  _99
REMARK   34  A    between atoms: _99  and  _100
REMARK   35  A    between atoms: _99  and  _102
REMARK   36  A    between atoms: _102  and  _103
REMARK   37  A    between atoms: _106  and  _108
REMARK   38  A    between atoms: _108  and  _109
REMARK   39  A    between atoms: _108  and  _111
REMARK   40  A    between atoms: _111  and  _112
REMARK   41  A    between atoms: _112  and  _113
REMARK   42  A    between atoms: _118  and  _120
REMARK   43  A    between atoms: _120  and  _121
REMARK   44  A    between atoms: _120  and  _123
REMARK   45  A    between atoms: _123  and  _124
REMARK   46  A    between atoms: _130  and  _132
REMARK   47  A    between atoms: _143  and  _146
REMARK   48  A    between atoms: _146  and  _147
REMARK   49  A    between atoms: _155  and  _156
REMARK   50  A    between atoms: _164  and  _166
REMARK   51  A    between atoms: _166  and  _167
REMARK   52  A    between atoms: _166  and  _169
REMARK   53  A    between atoms: _169  and  _170
REMARK   54  A    between atoms: _170  and  _171
REMARK   55  A    between atoms: _174  and  _176
REMARK   56  A    between atoms: _176  and  _177
REMARK   57  A    between atoms: _176  and  _179
REMARK   58  A    between atoms: _179  and  _180
REMARK   59  A    between atoms: _185  and  _187
REMARK   60  A    between atoms: _187  and  _188
REMARK   61  A    between atoms: _187  and  _190
REMARK   62  A    between atoms: _190  and  _191
REMARK   63  A    between atoms: _191  and  _192
REMARK   64  A    between atoms: _195  and  _197
REMARK   65  A    between atoms: _197  and  _198
REMARK   66  A    between atoms: _197  and  _200
REMARK   67  A    between atoms: _200  and  _201
REMARK   68  A    between atoms: _204  and  _206
REMARK   69  A    between atoms: _206  and  _207
REMARK   70  A    between atoms: _206  and  _209
REMARK   71  A    between atoms: _209  and  _210
REMARK   72  A    between atoms: _211  and  ZN_454
REMARK   73  A    between atoms: _215  and  _217
REMARK   74  A    between atoms: _217  and  _218
REMARK   75  A    between atoms: _217  and  _220
REMARK   76  A    between atoms: _220  and  _221
REMARK   77  A    between atoms: _224  and  _226
REMARK   78  A    between atoms: _226  and  _227
REMARK   79  A    between atoms: _226  and  _229
REMARK   80  A    between atoms: _232  and  _234
REMARK   81  A    between atoms: _234  and  _235
REMARK   82  A    between atoms: _234  and  _237
REMARK   83  A    between atoms: _237  and  _238
REMARK   84  A    between atoms: _243  and  _245
REMARK   85  A    between atoms: _245  and  _246
REMARK   86  A    between atoms: _245  and  _248
REMARK   87  A    between atoms: _248  and  _249
REMARK   88  A    between atoms: _255  and  _257
REMARK   89  A    between atoms: _257  and  _258
REMARK   90  A    between atoms: _260  and  _262
REMARK   91  A    between atoms: _262  and  _263
REMARK   92  A    between atoms: _266  and  _268
REMARK   93  A    between atoms: _268  and  _269
REMARK   94  A    between atoms: _268  and  _271
REMARK   95  A    between atoms: _274  and  _276
REMARK   96  A    between atoms: _276  and  _277
REMARK   97  A    between atoms: _276  and  _279
REMARK   98  A    between atoms: _279  and  _280
REMARK   99  A    between atoms: _280  and  _281
REMARK  100  A    between atoms: _286  and  _288
REMARK  101  A    between atoms: _288  and  _289
REMARK  102  A    between atoms: _288  and  _291
REMARK  103  A    between atoms: _291  and  _292
REMARK  104  A    between atoms: _295  and  _297
REMARK  105  A    between atoms: _297  and  _298
REMARK  106  A    between atoms: _301  and  _303
REMARK  107  A    between atoms: _303  and  _304
REMARK  108  A    between atoms: _303  and  _306
REMARK  109  A    between atoms: _309  and  _311
REMARK  110  A    between atoms: _311  and  _312
REMARK  111  A    between atoms: _311  and  _314
REMARK  112  A    between atoms: _314  and  _315
REMARK  113  A    between atoms: _318  and  _320
REMARK  114  A    between atoms: _320  and  _321
REMARK  115  A    between atoms: _323  and  _325
REMARK  116  A    between atoms: _325  and  _326
REMARK  117  A    between atoms: _328  and  _330
REMARK  118  A    between atoms: _330  and  _331
REMARK  119  A    between atoms: _330  and  _333
REMARK  120  A    between atoms: _333  and  _334
REMARK  121  A    between atoms: _336  and  _338
REMARK  122  A    between atoms: _338  and  _339
REMARK  123  A    between atoms: _338  and  _341
REMARK  124  A    between atoms: _341  and  _342
REMARK  125  A    between atoms: _345  and  _347
REMARK  126  A    between atoms: _347  and  _348
REMARK  127  A    between atoms: _347  and  _350
REMARK  128  A    between atoms: _350  and  _351
REMARK  129  A    between atoms: _354  and  _356
REMARK  130  A    between atoms: _356  and  _357
REMARK  131  A    between atoms: _356  and  _359
REMARK  132  A    between atoms: _359  and  _360
REMARK  133  A    between atoms: _364  and  _365
REMARK  134  A    between atoms: _371  and  _372
REMARK  135  A    between atoms: _377  and  _379
REMARK  136  A    between atoms: _379  and  _380
REMARK  137  A    between atoms: _379  and  _382
REMARK  138  A    between atoms: _382  and  _383
REMARK  139  A    between atoms: _386  and  _388
REMARK  140  A    between atoms: _388  and  _389
REMARK  141  A    between atoms: _388  and  _391
REMARK  142  A    between atoms: _391  and  _392
REMARK  143  A    between atoms: _395  and  _397
REMARK  144  A    between atoms: _397  and  _398
REMARK  145  A    between atoms: _397  and  _400
REMARK  146  A    between atoms: _402  and  _404
REMARK  147  A    between atoms: _404  and  _405
REMARK  148  A    between atoms: _404  and  _407
REMARK  149  A    between atoms: _410  and  _412
REMARK  150  A    between atoms: _412  and  _413
REMARK  151  A    between atoms: _412  and  _415
REMARK  152  A    between atoms: _415  and  _416
REMARK  153  A    between atoms: _426  and  _428
REMARK  154  A    between atoms: _428  and  _429
REMARK  155  A    between atoms: _428  and  _431
REMARK  156  A    between atoms: _431  and  _432
REMARK  157  A    between atoms: _437  and  _439
REMARK  158  A    between atoms: _439  and  _440
REMARK  159  A    between atoms: _439  and  _442
REMARK  160  A    between atoms: _442  and  _443
REMARK  161  A    between atoms: _443  and  _444
REMARK  162  A    between atoms: _444  and  _445
REMARK                            x       y       z     vdW  Elec       q    Type
REMARK                         _______ _______ _______ _____ _____    ______ ____
ROOT
ATOM      1  O   HOH     1      16.835   3.247  10.791  0.00  0.00    +0.000 OA
ENDROOT
TORSDOF 0
REMARK  Name = ../refined-set-2016/3ryx/3ryx_pocket.pdb
REMARK  162 active torsions:
REMARK  status: ('A' for Active; 'I' for Inactive)
REMARK    1  A    between atoms: _1  and  _3
REMARK    2  A    between atoms: _3  and  _4
REMARK    3  A    between atoms: _3  and  _6
REMARK    4  A    between atoms: _6  and  _7
REMARK    5  A    between atoms: _17  and  _19
REMARK    6  A    between atoms: _19  and  _20
REMARK    7  A    between atoms: _19  and  _22
REMARK    8  A    between atoms: _22  and  _23
REMARK    9  A    between atoms: _28  and  _29
REMARK   10  A    between atoms: _31  and  _33
REMARK   11  A    between atoms: _33  and  _34
REMARK   12  A    between atoms: _33  and  _36
REMARK   13  A    between atoms: _36  and  _37
REMARK   14  A    between atoms: _43  and  _45
REMARK   15  A    between atoms: _45  and  _46
REMARK   16  A    between atoms: _45  and  _48
REMARK   17  A    between atoms: _48  and  _49
REMARK   18  A    between atoms: _52  and  _53
REMARK   19  A    between atoms: _58  and  _60
REMARK   20  A    between atoms: _60  and  _61
REMARK   21  A    between atoms: _60  and  _63
REMARK   22  A    between atoms: _63  and  _64
REMARK   23  A    between atoms: _69  and  _71
REMARK   24  A    between atoms: _71  and  _72
REMARK   25  A    between atoms: _71  and  _74
REMARK   26  A    between atoms: _74  and  _75
REMARK   27  A    between atoms: _80  and  _82
REMARK   28  A    between atoms: _82  and  _83
REMARK   29  A    between atoms: _86  and  _88
REMARK   30  A    between atoms: _88  and  _89
REMARK   31  A    between atoms: _88  and  _91
REMARK   32  A    between atoms: _91  and  _92
REMARK   33  A    between atoms: _97  and  _99
REMARK   34  A    between atoms: _99  and  _100
REMARK   35  A    between atoms: _99  and  _102
REMARK   36  A    between atoms: _102  and  _103
REMARK   37  A    between atoms: _106  and  _108
REMARK   38  A    between atoms: _108  and  _109
REMARK   39  A    between atoms: _108  and  _111
REMARK   40  A    between atoms: _111  and  _112
REMARK   41  A    between atoms: _112  and  _113
REMARK   42  A    between atoms: _118  and  _120
REMARK   43  A    between atoms: _120  and  _121
REMARK   44  A    between atoms: _120  and  _123
REMARK   45  A    between atoms: _123  and  _124
REMARK   46  A    between atoms: _130  and  _132
REMARK   47  A    between atoms: _143  and  _146
REMARK   48  A    between atoms: _146  and  _147
REMARK   49  A    between atoms: _155  and  _156
REMARK   50  A    between atoms: _164  and  _166
REMARK   51  A    between atoms: _166  and  _167
REMARK   52  A    between atoms: _166  and  _169
REMARK   53  A    between atoms: _169  and  _170
REMARK   54  A    between atoms: _170  and  _171
REMARK   55  A    between atoms: _174  and  _176
REMARK   56  A    between atoms: _176  and  _177
REMARK   57  A    between atoms: _176  and  _179
REMARK   58  A    between atoms: _179  and  _180
REMARK   59  A    between atoms: _185  and  _187
REMARK   60  A    between atoms: _187  and  _188
REMARK   61  A    between atoms: _187  and  _190
REMARK   62  A    between atoms: _190  and  _191
REMARK   63  A    between atoms: _191  and  _192
REMARK   64  A    between atoms: _195  and  _197
REMARK   65  A    between atoms: _197  and  _198
REMARK   66  A    between atoms: _197  and  _200
REMARK   67  A    between atoms: _200  and  _201
REMARK   68  A    between atoms: _204  and  _206
REMARK   69  A    between atoms: _206  and  _207
REMARK   70  A    between atoms: _206  and  _209
REMARK   71  A    between atoms: _209  and  _210
REMARK   72  A    between atoms: _211  and  ZN_454
REMARK   73  A    between atoms: _215  and  _217
REMARK   74  A    between atoms: _217  and  _218
REMARK   75  A    between atoms: _217  and  _220
REMARK   76  A    between atoms: _220  and  _221
REMARK   77  A    between atoms: _224  and  _226
REMARK   78  A    between atoms: _226  and  _227
REMARK   79  A    between atoms: _226  and  _229
REMARK   80  A    between atoms: _232  and  _234
REMARK   81  A    between atoms: _234  and  _235
REMARK   82  A    between atoms: _234  and  _237
REMARK   83  A    between atoms: _237  and  _238
REMARK   84  A    between atoms: _243  and  _245
REMARK   85  A    between atoms: _245  and  _246
REMARK   86  A    between atoms: _245  and  _248
REMARK   87  A    between atoms: _248  and  _249
REMARK   88  A    between atoms: _255  and  _257
REMARK   89  A    between atoms: _257  and  _258
REMARK   90  A    between atoms: _260  and  _262
REMARK   91  A    between atoms: _262  and  _263
REMARK   92  A    between atoms: _266  and  _268
REMARK   93  A    between atoms: _268  and  _269
REMARK   94  A    between atoms: _268  and  _271
REMARK   95  A    between atoms: _274  and  _276
REMARK   96  A    between atoms: _276  and  _277
REMARK   97  A    between atoms: _276  and  _279
REMARK   98  A    between atoms: _279  and  _280
REMARK   99  A    between atoms: _280  and  _281
REMARK  100  A    between atoms: _286  and  _288
REMARK  101  A    between atoms: _288  and  _289
REMARK  102  A    between atoms: _288  and  _291
REMARK  103  A    between atoms: _291  and  _292
REMARK  104  A    between atoms: _295  and  _297
REMARK  105  A    between atoms: _297  and  _298
REMARK  106  A    between atoms: _301  and  _303
REMARK  107  A    between atoms: _303  and  _304
REMARK  108  A    between atoms: _303  and  _306
REMARK  109  A    between atoms: _309  and  _311
REMARK  110  A    between atoms: _311  and  _312
REMARK  111  A    between atoms: _311  and  _314
REMARK  112  A    between atoms: _314  and  _315
REMARK  113  A    between atoms: _318  and  _320
REMARK  114  A    between atoms: _320  and  _321
REMARK  115  A    between atoms: _323  and  _325
REMARK  116  A    between atoms: _325  and  _326
REMARK  117  A    between atoms: _328  and  _330
REMARK  118  A    between atoms: _330  and  _331
REMARK  119  A    between atoms: _330  and  _333
REMARK  120  A    between atoms: _333  and  _334
REMARK  121  A    between atoms: _336  and  _338
REMARK  122  A    between atoms: _338  and  _339
REMARK  123  A    between atoms: _338  and  _341
REMARK  124  A    between atoms: _341  and  _342
REMARK  125  A    between atoms: _345  and  _347
REMARK  126  A    between atoms: _347  and  _348
REMARK  127  A    between atoms: _347  and  _350
REMARK  128  A    between atoms: _350  and  _351
REMARK  129  A    between atoms: _354  and  _356
REMARK  130  A    between atoms: _356  and  _357
REMARK  131  A    between atoms: _356  and  _359
REMARK  132  A    between atoms: _359  and  _360
REMARK  133  A    between atoms: _364  and  _365
REMARK  134  A    between atoms: _371  and  _372
REMARK  135  A    between atoms: _377  and  _379
REMARK  136  A    between atoms: _379  and  _380
REMARK  137  A    between atoms: _379  and  _382
REMARK  138  A    between atoms: _382  and  _383
REMARK  139  A    between atoms: _386  and  _388
REMARK  140  A    between atoms: _388  and  _389
REMARK  141  A    between atoms: _388  and  _391
REMARK  142  A    between atoms: _391  and  _392
REMARK  143  A    between atoms: _395  and  _397
REMARK  144  A    between atoms: _397  and  _398
REMARK  145  A    between atoms: _397  and  _400
REMARK  146  A    between atoms: _402  and  _404
REMARK  147  A    between atoms: _404  and  _405
REMARK  148  A    between atoms: _404  and  _407
REMARK  149  A    between atoms: _410  and  _412
REMARK  150  A    between atoms: _412  and  _413
REMARK  151  A    between atoms: _412  and  _415
REMARK  152  A    between atoms: _415  and  _416
REMARK  153  A    between atoms: _426  and  _428
REMARK  154  A    between atoms: _428  and  _429
REMARK  155  A    between atoms: _428  and  _431
REMARK  156  A    between atoms: _431  and  _432
REMARK  157  A    between atoms: _437  and  _439
REMARK  158  A    between atoms: _439  and  _440
REMARK  159  A    between atoms: _439  and  _442
REMARK  160  A    between atoms: _442  and  _443
REMARK  161  A    between atoms: _443  and  _444
REMARK  162  A    between atoms: _444  and  _445
REMARK                            x       y       z     vdW  Elec       q    Type
REMARK                         _______ _______ _______ _____ _____    ______ ____
ROOT
ATOM      1  O   HOH     1      16.195  -0.241  10.003  0.00  0.00    +0.000 OA
ENDROOT
TORSDOF 0
REMARK  Name = ../refined-set-2016/3ryx/3ryx_pocket.pdb
REMARK  162 active torsions:
REMARK  status: ('A' for Active; 'I' for Inactive)
REMARK    1  A    between atoms: _1  and  _3
REMARK    2  A    between atoms: _3  and  _4
REMARK    3  A    between atoms: _3  and  _6
REMARK    4  A    between atoms: _6  and  _7
REMARK    5  A    between atoms: _17  and  _19
REMARK    6  A    between atoms: _19  and  _20
REMARK    7  A    between atoms: _19  and  _22
REMARK    8  A    between atoms: _22  and  _23
REMARK    9  A    between atoms: _28  and  _29
REMARK   10  A    between atoms: _31  and  _33
REMARK   11  A    between atoms: _33  and  _34
REMARK   12  A    between atoms: _33  and  _36
REMARK   13  A    between atoms: _36  and  _37
REMARK   14  A    between atoms: _43  and  _45
REMARK   15  A    between atoms: _45  and  _46
REMARK   16  A    between atoms: _45  and  _48
REMARK   17  A    between atoms: _48  and  _49
REMARK   18  A    between atoms: _52  and  _53
REMARK   19  A    between atoms: _58  and  _60
REMARK   20  A    between atoms: _60  and  _61
REMARK   21  A    between atoms: _60  and  _63
REMARK   22  A    between atoms: _63  and  _64
REMARK   23  A    between atoms: _69  and  _71
REMARK   24  A    between atoms: _71  and  _72
REMARK   25  A    between atoms: _71  and  _74
REMARK   26  A    between atoms: _74  and  _75
REMARK   27  A    between atoms: _80  and  _82
REMARK   28  A    between atoms: _82  and  _83
REMARK   29  A    between atoms: _86  and  _88
REMARK   30  A    between atoms: _88  and  _89
REMARK   31  A    between atoms: _88  and  _91
REMARK   32  A    between atoms: _91  and  _92
REMARK   33  A    between atoms: _97  and  _99
REMARK   34  A    between atoms: _99  and  _100
REMARK   35  A    between atoms: _99  and  _102
REMARK   36  A    between atoms: _102  and  _103
REMARK   37  A    between atoms: _106  and  _108
REMARK   38  A    between atoms: _108  and  _109
REMARK   39  A    between atoms: _108  and  _111
REMARK   40  A    between atoms: _111  and  _112
REMARK   41  A    between atoms: _112  and  _113
REMARK   42  A    between atoms: _118  and  _120
REMARK   43  A    between atoms: _120  and  _121
REMARK   44  A    between atoms: _120  and  _123
REMARK   45  A    between atoms: _123  and  _124
REMARK   46  A    between atoms: _130  and  _132
REMARK   47  A    between atoms: _143  and  _146
REMARK   48  A    between atoms: _146  and  _147
REMARK   49  A    between atoms: _155  and  _156
REMARK   50  A    between atoms: _164  and  _166
REMARK   51  A    between atoms: _166  and  _167
REMARK   52  A    between atoms: _166  and  _169
REMARK   53  A    between atoms: _169  and  _170
REMARK   54  A    between atoms: _170  and  _171
REMARK   55  A    between atoms: _174  and  _176
REMARK   56  A    between atoms: _176  and  _177
REMARK   57  A    between atoms: _176  and  _179
REMARK   58  A    between atoms: _179  and  _180
REMARK   59  A    between atoms: _185  and  _187
REMARK   60  A    between atoms: _187  and  _188
REMARK   61  A    between atoms: _187  and  _190
REMARK   62  A    between atoms: _190  and  _191
REMARK   63  A    between atoms: _191  and  _192
REMARK   64  A    between atoms: _195  and  _197
REMARK   65  A    between atoms: _197  and  _198
REMARK   66  A    between atoms: _197  and  _200
REMARK   67  A    between atoms: _200  and  _201
REMARK   68  A    between atoms: _204  and  _206
REMARK   69  A    between atoms: _206  and  _207
REMARK   70  A    between atoms: _206  and  _209
REMARK   71  A    between atoms: _209  and  _210
REMARK   72  A    between atoms: _211  and  ZN_454
REMARK   73  A    between atoms: _215  and  _217
REMARK   74  A    between atoms: _217  and  _218
REMARK   75  A    between atoms: _217  and  _220
REMARK   76  A    between atoms: _220  and  _221
REMARK   77  A    between atoms: _224  and  _226
REMARK   78  A    between atoms: _226  and  _227
REMARK   79  A    between atoms: _226  and  _229
REMARK   80  A    between atoms: _232  and  _234
REMARK   81  A    between atoms: _234  and  _235
REMARK   82  A    between atoms: _234  and  _237
REMARK   83  A    between atoms: _237  and  _238
REMARK   84  A    between atoms: _243  and  _245
REMARK   85  A    between atoms: _245  and  _246
REMARK   86  A    between atoms: _245  and  _248
REMARK   87  A    between atoms: _248  and  _249
REMARK   88  A    between atoms: _255  and  _257
REMARK   89  A    between atoms: _257  and  _258
REMARK   90  A    between atoms: _260  and  _262
REMARK   91  A    between atoms: _262  and  _263
REMARK   92  A    between atoms: _266  and  _268
REMARK   93  A    between atoms: _268  and  _269
REMARK   94  A    between atoms: _268  and  _271
REMARK   95  A    between atoms: _274  and  _276
REMARK   96  A    between atoms: _276  and  _277
REMARK   97  A    between atoms: _276  and  _279
REMARK   98  A    between atoms: _279  and  _280
REMARK   99  A    between atoms: _280  and  _281
REMARK  100  A    between atoms: _286  and  _288
REMARK  101  A    between atoms: _288  and  _289
REMARK  102  A    between atoms: _288  and  _291
REMARK  103  A    between atoms: _291  and  _292
REMARK  104  A    between atoms: _295  and  _297
REMARK  105  A    between atoms: _297  and  _298
REMARK  106  A    between atoms: _301  and  _303
REMARK  107  A    between atoms: _303  and  _304
REMARK  108  A    between atoms: _303  and  _306
REMARK  109  A    between atoms: _309  and  _311
REMARK  110  A    between atoms: _311  and  _312
REMARK  111  A    between atoms: _311  and  _314
REMARK  112  A    between atoms: _314  and  _315
REMARK  113  A    between atoms: _318  and  _320
REMARK  114  A    between atoms: _320  and  _321
REMARK  115  A    between atoms: _323  and  _325
REMARK  116  A    between atoms: _325  and  _326
REMARK  117  A    between atoms: _328  and  _330
REMARK  118  A    between atoms: _330  and  _331
REMARK  119  A    between atoms: _330  and  _333
REMARK  120  A    between atoms: _333  and  _334
REMARK  121  A    between atoms: _336  and  _338
REMARK  122  A    between atoms: _338  and  _339
REMARK  123  A    between atoms: _338  and  _341
REMARK  124  A    between atoms: _341  and  _342
REMARK  125  A    between atoms: _345  and  _347
REMARK  126  A    between atoms: _347  and  _348
REMARK  127  A    between atoms: _347  and  _350
REMARK  128  A    between atoms: _350  and  _351
REMARK  129  A    between atoms: _354  and  _356
REMARK  130  A    between atoms: _356  and  _357
REMARK  131  A    between atoms: _356  and  _359
REMARK  132  A    between atoms: _359  and  _360
REMARK  133  A    between atoms: _364  and  _365
REMARK  134  A    between atoms: _371  and  _372
REMARK  135  A    between atoms: _377  and  _379
REMARK  136  A    between atoms: _379  and  _380
REMARK  137  A    between atoms: _379  and  _382
REMARK  138  A    between atoms: _382  and  _383
REMARK  139  A    between atoms: _386  and  _388
REMARK  140  A    between atoms: _388  and  _389
REMARK  141  A    between atoms: _388  and  _391
REMARK  142  A    between atoms: _391  and  _392
REMARK  143  A    between atoms: _395  and  _397
REMARK  144  A    between atoms: _397  and  _398
REMARK  145  A    between atoms: _397  and  _400
REMARK  146  A    between atoms: _402  and  _404
REMARK  147  A    between atoms: _404  and  _405
REMARK  148  A    between atoms: _404  and  _407
REMARK  149  A    between atoms: _410  and  _412
REMARK  150  A    between atoms: _412  and  _413
REMARK  151  A    between atoms: _412  and  _415
REMARK  152  A    between atoms: _415  and  _416
REMARK  153  A    between atoms: _426  and  _428
REMARK  154  A    between atoms: _428  and  _429
REMARK  155  A    between atoms: _428  and  _431
REMARK  156  A    between atoms: _431  and  _432
REMARK  157  A    between atoms: _437  and  _439
REMARK  158  A    between atoms: _439  and  _440
REMARK  159  A    between atoms: _439  and  _442
REMARK  160  A    between atoms: _442  and  _443
REMARK  161  A    between atoms: _443  and  _444
REMARK  162  A    between atoms: _444  and  _445
REMARK                            x       y       z     vdW  Elec       q    Type
REMARK                         _______ _______ _______ _____ _____    ______ ____
ROOT
ATOM      1  O   HOH     1      20.015   2.410  10.949  0.00  0.00    +0.000 OA
ENDROOT
TORSDOF 0
REMARK  Name = ../refined-set-2016/3ryx/3ryx_pocket.pdb
REMARK  162 active torsions:
REMARK  status: ('A' for Active; 'I' for Inactive)
REMARK    1  A    between atoms: _1  and  _3
REMARK    2  A    between atoms: _3  and  _4
REMARK    3  A    between atoms: _3  and  _6
REMARK    4  A    between atoms: _6  and  _7
REMARK    5  A    between atoms: _17  and  _19
REMARK    6  A    between atoms: _19  and  _20
REMARK    7  A    between atoms: _19  and  _22
REMARK    8  A    between atoms: _22  and  _23
REMARK    9  A    between atoms: _28  and  _29
REMARK   10  A    between atoms: _31  and  _33
REMARK   11  A    between atoms: _33  and  _34
REMARK   12  A    between atoms: _33  and  _36
REMARK   13  A    between atoms: _36  and  _37
REMARK   14  A    between atoms: _43  and  _45
REMARK   15  A    between atoms: _45  and  _46
REMARK   16  A    between atoms: _45  and  _48
REMARK   17  A    between atoms: _48  and  _49
REMARK   18  A    between atoms: _52  and  _53
REMARK   19  A    between atoms: _58  and  _60
REMARK   20  A    between atoms: _60  and  _61
REMARK   21  A    between atoms: _60  and  _63
REMARK   22  A    between atoms: _63  and  _64
REMARK   23  A    between atoms: _69  and  _71
REMARK   24  A    between atoms: _71  and  _72
REMARK   25  A    between atoms: _71  and  _74
REMARK   26  A    between atoms: _74  and  _75
REMARK   27  A    between atoms: _80  and  _82
REMARK   28  A    between atoms: _82  and  _83
REMARK   29  A    between atoms: _86  and  _88
REMARK   30  A    between atoms: _88  and  _89
REMARK   31  A    between atoms: _88  and  _91
REMARK   32  A    between atoms: _91  and  _92
REMARK   33  A    between atoms: _97  and  _99
REMARK   34  A    between atoms: _99  and  _100
REMARK   35  A    between atoms: _99  and  _102
REMARK   36  A    between atoms: _102  and  _103
REMARK   37  A    between atoms: _106  and  _108
REMARK   38  A    between atoms: _108  and  _109
REMARK   39  A    between atoms: _108  and  _111
REMARK   40  A    between atoms: _111  and  _112
REMARK   41  A    between atoms: _112  and  _113
REMARK   42  A    between atoms: _118  and  _120
REMARK   43  A    between atoms: _120  and  _121
REMARK   44  A    between atoms: _120  and  _123
REMARK   45  A    between atoms: _123  and  _124
REMARK   46  A    between atoms: _130  and  _132
REMARK   47  A    between atoms: _143  and  _146
REMARK   48  A    between atoms: _146  and  _147
REMARK   49  A    between atoms: _155  and  _156
REMARK   50  A    between atoms: _164  and  _166
REMARK   51  A    between atoms: _166  and  _167
REMARK   52  A    between atoms: _166  and  _169
REMARK   53  A    between atoms: _169  and  _170
REMARK   54  A    between atoms: _170  and  _171
REMARK   55  A    between atoms: _174  and  _176
REMARK   56  A    between atoms: _176  and  _177
REMARK   57  A    between atoms: _176  and  _179
REMARK   58  A    between atoms: _179  and  _180
REMARK   59  A    between atoms: _185  and  _187
REMARK   60  A    between atoms: _187  and  _188
REMARK   61  A    between atoms: _187  and  _190
REMARK   62  A    between atoms: _190  and  _191
REMARK   63  A    between atoms: _191  and  _192
REMARK   64  A    between atoms: _195  and  _197
REMARK   65  A    between atoms: _197  and  _198
REMARK   66  A    between atoms: _197  and  _200
REMARK   67  A    between atoms: _200  and  _201
REMARK   68  A    between atoms: _204  and  _206
REMARK   69  A    between atoms: _206  and  _207
REMARK   70  A    between atoms: _206  and  _209
REMARK   71  A    between atoms: _209  and  _210
REMARK   72  A    between atoms: _211  and  ZN_454
REMARK   73  A    between atoms: _215  and  _217
REMARK   74  A    between atoms: _217  and  _218
REMARK   75  A    between atoms: _217  and  _220
REMARK   76  A    between atoms: _220  and  _221
REMARK   77  A    between atoms: _224  and  _226
REMARK   78  A    between atoms: _226  and  _227
REMARK   79  A    between atoms: _226  and  _229
REMARK   80  A    between atoms: _232  and  _234
REMARK   81  A    between atoms: _234  and  _235
REMARK   82  A    between atoms: _234  and  _237
REMARK   83  A    between atoms: _237  and  _238
REMARK   84  A    between atoms: _243  and  _245
REMARK   85  A    between atoms: _245  and  _246
REMARK   86  A    between atoms: _245  and  _248
REMARK   87  A    between atoms: _248  and  _249
REMARK   88  A    between atoms: _255  and  _257
REMARK   89  A    between atoms: _257  and  _258
REMARK   90  A    between atoms: _260  and  _262
REMARK   91  A    between atoms: _262  and  _263
REMARK   92  A    between atoms: _266  and  _268
REMARK   93  A    between atoms: _268  and  _269
REMARK   94  A    between atoms: _268  and  _271
REMARK   95  A    between atoms: _274  and  _276
REMARK   96  A    between atoms: _276  and  _277
REMARK   97  A    between atoms: _276  and  _279
REMARK   98  A    between atoms: _279  and  _280
REMARK   99  A    between atoms: _280  and  _281
REMARK  100  A    between atoms: _286  and  _288
REMARK  101  A    between atoms: _288  and  _289
REMARK  102  A    between atoms: _288  and  _291
REMARK  103  A    between atoms: _291  and  _292
REMARK  104  A    between atoms: _295  and  _297
REMARK  105  A    between atoms: _297  and  _298
REMARK  106  A    between atoms: _301  and  _303
REMARK  107  A    between atoms: _303  and  _304
REMARK  108  A    between atoms: _303  and  _306
REMARK  109  A    between atoms: _309  and  _311
REMARK  110  A    between atoms: _311  and  _312
REMARK  111  A    between atoms: _311  and  _314
REMARK  112  A    between atoms: _314  and  _315
REMARK  113  A    between atoms: _318  and  _320
REMARK  114  A    between atoms: _320  and  _321
REMARK  115  A    between atoms: _323  and  _325
REMARK  116  A    between atoms: _325  and  _326
REMARK  117  A    between atoms: _328  and  _330
REMARK  118  A    between atoms: _330  and  _331
REMARK  119  A    between atoms: _330  and  _333
REMARK  120  A    between atoms: _333  and  _334
REMARK  121  A    between atoms: _336  and  _338
REMARK  122  A    between atoms: _338  and  _339
REMARK  123  A    between atoms: _338  and  _341
REMARK  124  A    between atoms: _341  and  _342
REMARK  125  A    between atoms: _345  and  _347
REMARK  126  A    between atoms: _347  and  _348
REMARK  127  A    between atoms: _347  and  _350
REMARK  128  A    between atoms: _350  and  _351
REMARK  129  A    between atoms: _354  and  _356
REMARK  130  A    between atoms: _356  and  _357
REMARK  131  A    between atoms: _356  and  _359
REMARK  132  A    between atoms: _359  and  _360
REMARK  133  A    between atoms: _364  and  _365
REMARK  134  A    between atoms: _371  and  _372
REMARK  135  A    between atoms: _377  and  _379
REMARK  136  A    between atoms: _379  and  _380
REMARK  137  A    between atoms: _379  and  _382
REMARK  138  A    between atoms: _382  and  _383
REMARK  139  A    between atoms: _386  and  _388
REMARK  140  A    between atoms: _388  and  _389
REMARK  141  A    between atoms: _388  and  _391
REMARK  142  A    between atoms: _391  and  _392
REMARK  143  A    between atoms: _395  and  _397
REMARK  144  A    between atoms: _397  and  _398
REMARK  145  A    between atoms: _397  and  _400
REMARK  146  A    between atoms: _402  and  _404
REMARK  147  A    between atoms: _404  and  _405
REMARK  148  A    between atoms: _404  and  _407
REMARK  149  A    between atoms: _410  and  _412
REMARK  150  A    between atoms: _412  and  _413
REMARK  151  A    between atoms: _412  and  _415
REMARK  152  A    between atoms: _415  and  _416
REMARK  153  A    between atoms: _426  and  _428
REMARK  154  A    between atoms: _428  and  _429
REMARK  155  A    between atoms: _428  and  _431
REMARK  156  A    between atoms: _431  and  _432
REMARK  157  A    between atoms: _437  and  _439
REMARK  158  A    between atoms: _439  and  _440
REMARK  159  A    between atoms: _439  and  _442
REMARK  160  A    between atoms: _442  and  _443
REMARK  161  A    between atoms: _443  and  _444
REMARK  162  A    between atoms: _444  and  _445
REMARK                            x       y       z     vdW  Elec       q    Type
REMARK                         _______ _______ _______ _____ _____    ______ ____
ROOT
ATOM      1  O   HOH     1      17.608  -2.055  11.563  0.00  0.00    +0.000 OA
ENDROOT
TORSDOF 0
REMARK  Name = ../refined-set-2016/3ryx/3ryx_pocket.pdb
REMARK  162 active torsions:
REMARK  status: ('A' for Active; 'I' for Inactive)
REMARK    1  A    between atoms: _1  and  _3
REMARK    2  A    between atoms: _3  and  _4
REMARK    3  A    between atoms: _3  and  _6
REMARK    4  A    between atoms: _6  and  _7
REMARK    5  A    between atoms: _17  and  _19
REMARK    6  A    between atoms: _19  and  _20
REMARK    7  A    between atoms: _19  and  _22
REMARK    8  A    between atoms: _22  and  _23
REMARK    9  A    between atoms: _28  and  _29
REMARK   10  A    between atoms: _31  and  _33
REMARK   11  A    between atoms: _33  and  _34
REMARK   12  A    between atoms: _33  and  _36
REMARK   13  A    between atoms: _36  and  _37
REMARK   14  A    between atoms: _43  and  _45
REMARK   15  A    between atoms: _45  and  _46
REMARK   16  A    between atoms: _45  and  _48
REMARK   17  A    between atoms: _48  and  _49
REMARK   18  A    between atoms: _52  and  _53
REMARK   19  A    between atoms: _58  and  _60
REMARK   20  A    between atoms: _60  and  _61
REMARK   21  A    between atoms: _60  and  _63
REMARK   22  A    between atoms: _63  and  _64
REMARK   23  A    between atoms: _69  and  _71
REMARK   24  A    between atoms: _71  and  _72
REMARK   25  A    between atoms: _71  and  _74
REMARK   26  A    between atoms: _74  and  _75
REMARK   27  A    between atoms: _80  and  _82
REMARK   28  A    between atoms: _82  and  _83
REMARK   29  A    between atoms: _86  and  _88
REMARK   30  A    between atoms: _88  and  _89
REMARK   31  A    between atoms: _88  and  _91
REMARK   32  A    between atoms: _91  and  _92
REMARK   33  A    between atoms: _97  and  _99
REMARK   34  A    between atoms: _99  and  _100
REMARK   35  A    between atoms: _99  and  _102
REMARK   36  A    between atoms: _102  and  _103
REMARK   37  A    between atoms: _106  and  _108
REMARK   38  A    between atoms: _108  and  _109
REMARK   39  A    between atoms: _108  and  _111
REMARK   40  A    between atoms: _111  and  _112
REMARK   41  A    between atoms: _112  and  _113
REMARK   42  A    between atoms: _118  and  _120
REMARK   43  A    between atoms: _120  and  _121
REMARK   44  A    between atoms: _120  and  _123
REMARK   45  A    between atoms: _123  and  _124
REMARK   46  A    between atoms: _130  and  _132
REMARK   47  A    between atoms: _143  and  _146
REMARK   48  A    between atoms: _146  and  _147
REMARK   49  A    between atoms: _155  and  _156
REMARK   50  A    between atoms: _164  and  _166
REMARK   51  A    between atoms: _166  and  _167
REMARK   52  A    between atoms: _166  and  _169
REMARK   53  A    between atoms: _169  and  _170
REMARK   54  A    between atoms: _170  and  _171
REMARK   55  A    between atoms: _174  and  _176
REMARK   56  A    between atoms: _176  and  _177
REMARK   57  A    between atoms: _176  and  _179
REMARK   58  A    between atoms: _179  and  _180
REMARK   59  A    between atoms: _185  and  _187
REMARK   60  A    between atoms: _187  and  _188
REMARK   61  A    between atoms: _187  and  _190
REMARK   62  A    between atoms: _190  and  _191
REMARK   63  A    between atoms: _191  and  _192
REMARK   64  A    between atoms: _195  and  _197
REMARK   65  A    between atoms: _197  and  _198
REMARK   66  A    between atoms: _197  and  _200
REMARK   67  A    between atoms: _200  and  _201
REMARK   68  A    between atoms: _204  and  _206
REMARK   69  A    between atoms: _206  and  _207
REMARK   70  A    between atoms: _206  and  _209
REMARK   71  A    between atoms: _209  and  _210
REMARK   72  A    between atoms: _211  and  ZN_454
REMARK   73  A    between atoms: _215  and  _217
REMARK   74  A    between atoms: _217  and  _218
REMARK   75  A    between atoms: _217  and  _220
REMARK   76  A    between atoms: _220  and  _221
REMARK   77  A    between atoms: _224  and  _226
REMARK   78  A    between atoms: _226  and  _227
REMARK   79  A    between atoms: _226  and  _229
REMARK   80  A    between atoms: _232  and  _234
REMARK   81  A    between atoms: _234  and  _235
REMARK   82  A    between atoms: _234  and  _237
REMARK   83  A    between atoms: _237  and  _238
REMARK   84  A    between atoms: _243  and  _245
REMARK   85  A    between atoms: _245  and  _246
REMARK   86  A    between atoms: _245  and  _248
REMARK   87  A    between atoms: _248  and  _249
REMARK   88  A    between atoms: _255  and  _257
REMARK   89  A    between atoms: _257  and  _258
REMARK   90  A    between atoms: _260  and  _262
REMARK   91  A    between atoms: _262  and  _263
REMARK   92  A    between atoms: _266  and  _268
REMARK   93  A    between atoms: _268  and  _269
REMARK   94  A    between atoms: _268  and  _271
REMARK   95  A    between atoms: _274  and  _276
REMARK   96  A    between atoms: _276  and  _277
REMARK   97  A    between atoms: _276  and  _279
REMARK   98  A    between atoms: _279  and  _280
REMARK   99  A    between atoms: _280  and  _281
REMARK  100  A    between atoms: _286  and  _288
REMARK  101  A    between atoms: _288  and  _289
REMARK  102  A    between atoms: _288  and  _291
REMARK  103  A    between atoms: _291  and  _292
REMARK  104  A    between atoms: _295  and  _297
REMARK  105  A    between atoms: _297  and  _298
REMARK  106  A    between atoms: _301  and  _303
REMARK  107  A    between atoms: _303  and  _304
REMARK  108  A    between atoms: _303  and  _306
REMARK  109  A    between atoms: _309  and  _311
REMARK  110  A    between atoms: _311  and  _312
REMARK  111  A    between atoms: _311  and  _314
REMARK  112  A    between atoms: _314  and  _315
REMARK  113  A    between atoms: _318  and  _320
REMARK  114  A    between atoms: _320  and  _321
REMARK  115  A    between atoms: _323  and  _325
REMARK  116  A    between atoms: _325  and  _326
REMARK  117  A    between atoms: _328  and  _330
REMARK  118  A    between atoms: _330  and  _331
REMARK  119  A    between atoms: _330  and  _333
REMARK  120  A    between atoms: _333  and  _334
REMARK  121  A    between atoms: _336  and  _338
REMARK  122  A    between atoms: _338  and  _339
REMARK  123  A    between atoms: _338  and  _341
REMARK  124  A    between atoms: _341  and  _342
REMARK  125  A    between atoms: _345  and  _347
REMARK  126  A    between atoms: _347  and  _348
REMARK  127  A    between atoms: _347  and  _350
REMARK  128  A    between atoms: _350  and  _351
REMARK  129  A    between atoms: _354  and  _356
REMARK  130  A    between atoms: _356  and  _357
REMARK  131  A    between atoms: _356  and  _359
REMARK  132  A    between atoms: _359  and  _360
REMARK  133  A    between atoms: _364  and  _365
REMARK  134  A    between atoms: _371  and  _372
REMARK  135  A    between atoms: _377  and  _379
REMARK  136  A    between atoms: _379  and  _380
REMARK  137  A    between atoms: _379  and  _382
REMARK  138  A    between atoms: _382  and  _383
REMARK  139  A    between atoms: _386  and  _388
REMARK  140  A    between atoms: _388  and  _389
REMARK  141  A    between atoms: _388  and  _391
REMARK  142  A    between atoms: _391  and  _392
REMARK  143  A    between atoms: _395  and  _397
REMARK  144  A    between atoms: _397  and  _398
REMARK  145  A    between atoms: _397  and  _400
REMARK  146  A    between atoms: _402  and  _404
REMARK  147  A    between atoms: _404  and  _405
REMARK  148  A    between atoms: _404  and  _407
REMARK  149  A    between atoms: _410  and  _412
REMARK  150  A    between atoms: _412  and  _413
REMARK  151  A    between atoms: _412  and  _415
REMARK  152  A    between atoms: _415  and  _416
REMARK  153  A    between atoms: _426  and  _428
REMARK  154  A    between atoms: _428  and  _429
REMARK  155  A    between atoms: _428  and  _431
REMARK  156  A    between atoms: _431  and  _432
REMARK  157  A    between atoms: _437  and  _439
REMARK  158  A    between atoms: _439  and  _440
REMARK  159  A    between atoms: _439  and  _442
REMARK  160  A    between atoms: _442  and  _443
REMARK  161  A    between atoms: _443  and  _444
REMARK  162  A    between atoms: _444  and  _445
REMARK                            x       y       z     vdW  Elec       q    Type
REMARK                         _______ _______ _______ _____ _____    ______ ____
ROOT
ATOM      1  O   HOH     1      18.682  -4.241  11.495  0.00  0.00    +0.000 OA
ENDROOT
TORSDOF 0
REMARK  Name = ../refined-set-2016/3ryx/3ryx_pocket.pdb
REMARK  162 active torsions:
REMARK  status: ('A' for Active; 'I' for Inactive)
REMARK    1  A    between atoms: _1  and  _3
REMARK    2  A    between atoms: _3  and  _4
REMARK    3  A    between atoms: _3  and  _6
REMARK    4  A    between atoms: _6  and  _7
REMARK    5  A    between atoms: _17  and  _19
REMARK    6  A    between atoms: _19  and  _20
REMARK    7  A    between atoms: _19  and  _22
REMARK    8  A    between atoms: _22  and  _23
REMARK    9  A    between atoms: _28  and  _29
REMARK   10  A    between atoms: _31  and  _33
REMARK   11  A    between atoms: _33  and  _34
REMARK   12  A    between atoms: _33  and  _36
REMARK   13  A    between atoms: _36  and  _37
REMARK   14  A    between atoms: _43  and  _45
REMARK   15  A    between atoms: _45  and  _46
REMARK   16  A    between atoms: _45  and  _48
REMARK   17  A    between atoms: _48  and  _49
REMARK   18  A    between atoms: _52  and  _53
REMARK   19  A    between atoms: _58  and  _60
REMARK   20  A    between atoms: _60  and  _61
REMARK   21  A    between atoms: _60  and  _63
REMARK   22  A    between atoms: _63  and  _64
REMARK   23  A    between atoms: _69  and  _71
REMARK   24  A    between atoms: _71  and  _72
REMARK   25  A    between atoms: _71  and  _74
REMARK   26  A    between atoms: _74  and  _75
REMARK   27  A    between atoms: _80  and  _82
REMARK   28  A    between atoms: _82  and  _83
REMARK   29  A    between atoms: _86  and  _88
REMARK   30  A    between atoms: _88  and  _89
REMARK   31  A    between atoms: _88  and  _91
REMARK   32  A    between atoms: _91  and  _92
REMARK   33  A    between atoms: _97  and  _99
REMARK   34  A    between atoms: _99  and  _100
REMARK   35  A    between atoms: _99  and  _102
REMARK   36  A    between atoms: _102  and  _103
REMARK   37  A    between atoms: _106  and  _108
REMARK   38  A    between atoms: _108  and  _109
REMARK   39  A    between atoms: _108  and  _111
REMARK   40  A    between atoms: _111  and  _112
REMARK   41  A    between atoms: _112  and  _113
REMARK   42  A    between atoms: _118  and  _120
REMARK   43  A    between atoms: _120  and  _121
REMARK   44  A    between atoms: _120  and  _123
REMARK   45  A    between atoms: _123  and  _124
REMARK   46  A    between atoms: _130  and  _132
REMARK   47  A    between atoms: _143  and  _146
REMARK   48  A    between atoms: _146  and  _147
REMARK   49  A    between atoms: _155  and  _156
REMARK   50  A    between atoms: _164  and  _166
REMARK   51  A    between atoms: _166  and  _167
REMARK   52  A    between atoms: _166  and  _169
REMARK   53  A    between atoms: _169  and  _170
REMARK   54  A    between atoms: _170  and  _171
REMARK   55  A    between atoms: _174  and  _176
REMARK   56  A    between atoms: _176  and  _177
REMARK   57  A    between atoms: _176  and  _179
REMARK   58  A    between atoms: _179  and  _180
REMARK   59  A    between atoms: _185  and  _187
REMARK   60  A    between atoms: _187  and  _188
REMARK   61  A    between atoms: _187  and  _190
REMARK   62  A    between atoms: _190  and  _191
REMARK   63  A    between atoms: _191  and  _192
REMARK   64  A    between atoms: _195  and  _197
REMARK   65  A    between atoms: _197  and  _198
REMARK   66  A    between atoms: _197  and  _200
REMARK   67  A    between atoms: _200  and  _201
REMARK   68  A    between atoms: _204  and  _206
REMARK   69  A    between atoms: _206  and  _207
REMARK   70  A    between atoms: _206  and  _209
REMARK   71  A    between atoms: _209  and  _210
REMARK   72  A    between atoms: _211  and  ZN_454
REMARK   73  A    between atoms: _215  and  _217
REMARK   74  A    between atoms: _217  and  _218
REMARK   75  A    between atoms: _217  and  _220
REMARK   76  A    between atoms: _220  and  _221
REMARK   77  A    between atoms: _224  and  _226
REMARK   78  A    between atoms: _226  and  _227
REMARK   79  A    between atoms: _226  and  _229
REMARK   80  A    between atoms: _232  and  _234
REMARK   81  A    between atoms: _234  and  _235
REMARK   82  A    between atoms: _234  and  _237
REMARK   83  A    between atoms: _237  and  _238
REMARK   84  A    between atoms: _243  and  _245
REMARK   85  A    between atoms: _245  and  _246
REMARK   86  A    between atoms: _245  and  _248
REMARK   87  A    between atoms: _248  and  _249
REMARK   88  A    between atoms: _255  and  _257
REMARK   89  A    between atoms: _257  and  _258
REMARK   90  A    between atoms: _260  and  _262
REMARK   91  A    between atoms: _262  and  _263
REMARK   92  A    between atoms: _266  and  _268
REMARK   93  A    between atoms: _268  and  _269
REMARK   94  A    between atoms: _268  and  _271
REMARK   95  A    between atoms: _274  and  _276
REMARK   96  A    between atoms: _276  and  _277
REMARK   97  A    between atoms: _276  and  _279
REMARK   98  A    between atoms: _279  and  _280
REMARK   99  A    between atoms: _280  and  _281
REMARK  100  A    between atoms: _286  and  _288
REMARK  101  A    between atoms: _288  and  _289
REMARK  102  A    between atoms: _288  and  _291
REMARK  103  A    between atoms: _291  and  _292
REMARK  104  A    between atoms: _295  and  _297
REMARK  105  A    between atoms: _297  and  _298
REMARK  106  A    between atoms: _301  and  _303
REMARK  107  A    between atoms: _303  and  _304
REMARK  108  A    between atoms: _303  and  _306
REMARK  109  A    between atoms: _309  and  _311
REMARK  110  A    between atoms: _311  and  _312
REMARK  111  A    between atoms: _311  and  _314
REMARK  112  A    between atoms: _314  and  _315
REMARK  113  A    between atoms: _318  and  _320
REMARK  114  A    between atoms: _320  and  _321
REMARK  115  A    between atoms: _323  and  _325
REMARK  116  A    between atoms: _325  and  _326
REMARK  117  A    between atoms: _328  and  _330
REMARK  118  A    between atoms: _330  and  _331
REMARK  119  A    between atoms: _330  and  _333
REMARK  120  A    between atoms: _333  and  _334
REMARK  121  A    between atoms: _336  and  _338
REMARK  122  A    between atoms: _338  and  _339
REMARK  123  A    between atoms: _338  and  _341
REMARK  124  A    between atoms: _341  and  _342
REMARK  125  A    between atoms: _345  and  _347
REMARK  126  A    between atoms: _347  and  _348
REMARK  127  A    between atoms: _347  and  _350
REMARK  128  A    between atoms: _350  and  _351
REMARK  129  A    between atoms: _354  and  _356
REMARK  130  A    between atoms: _356  and  _357
REMARK  131  A    between atoms: _356  and  _359
REMARK  132  A    between atoms: _359  and  _360
REMARK  133  A    between atoms: _364  and  _365
REMARK  134  A    between atoms: _371  and  _372
REMARK  135  A    between atoms: _377  and  _379
REMARK  136  A    between atoms: _379  and  _380
REMARK  137  A    between atoms: _379  and  _382
REMARK  138  A    between atoms: _382  and  _383
REMARK  139  A    between atoms: _386  and  _388
REMARK  140  A    between atoms: _388  and  _389
REMARK  141  A    between atoms: _388  and  _391
REMARK  142  A    between atoms: _391  and  _392
REMARK  143  A    between atoms: _395  and  _397
REMARK  144  A    between atoms: _397  and  _398
REMARK  145  A    between atoms: _397  and  _400
REMARK  146  A    between atoms: _402  and  _404
REMARK  147  A    between atoms: _404  and  _405
REMARK  148  A    between atoms: _404  and  _407
REMARK  149  A    between atoms: _410  and  _412
REMARK  150  A    between atoms: _412  and  _413
REMARK  151  A    between atoms: _412  and  _415
REMARK  152  A    between atoms: _415  and  _416
REMARK  153  A    between atoms: _426  and  _428
REMARK  154  A    between atoms: _428  and  _429
REMARK  155  A    between atoms: _428  and  _431
REMARK  156  A    between atoms: _431  and  _432
REMARK  157  A    between atoms: _437  and  _439
REMARK  158  A    between atoms: _439  and  _440
REMARK  159  A    between atoms: _439  and  _442
REMARK  160  A    between atoms: _442  and  _443
REMARK  161  A    between atoms: _443  and  _444
REMARK  162  A    between atoms: _444  and  _445
REMARK                            x       y       z     vdW  Elec       q    Type
REMARK                         _______ _______ _______ _____ _____    ______ ____
ROOT
ATOM      1  O   HOH     1      20.647  11.617  13.881  0.00  0.00    +0.000 OA
ENDROOT
TORSDOF 0
REMARK  Name = ../refined-set-2016/3ryx/3ryx_pocket.pdb
REMARK  162 active torsions:
REMARK  status: ('A' for Active; 'I' for Inactive)
REMARK    1  A    between atoms: _1  and  _3
REMARK    2  A    between atoms: _3  and  _4
REMARK    3  A    between atoms: _3  and  _6
REMARK    4  A    between atoms: _6  and  _7
REMARK    5  A    between atoms: _17  and  _19
REMARK    6  A    between atoms: _19  and  _20
REMARK    7  A    between atoms: _19  and  _22
REMARK    8  A    between atoms: _22  and  _23
REMARK    9  A    between atoms: _28  and  _29
REMARK   10  A    between atoms: _31  and  _33
REMARK   11  A    between atoms: _33  and  _34
REMARK   12  A    between atoms: _33  and  _36
REMARK   13  A    between atoms: _36  and  _37
REMARK   14  A    between atoms: _43  and  _45
REMARK   15  A    between atoms: _45  and  _46
REMARK   16  A    between atoms: _45  and  _48
REMARK   17  A    between atoms: _48  and  _49
REMARK   18  A    between atoms: _52  and  _53
REMARK   19  A    between atoms: _58  and  _60
REMARK   20  A    between atoms: _60  and  _61
REMARK   21  A    between atoms: _60  and  _63
REMARK   22  A    between atoms: _63  and  _64
REMARK   23  A    between atoms: _69  and  _71
REMARK   24  A    between atoms: _71  and  _72
REMARK   25  A    between atoms: _71  and  _74
REMARK   26  A    between atoms: _74  and  _75
REMARK   27  A    between atoms: _80  and  _82
REMARK   28  A    between atoms: _82  and  _83
REMARK   29  A    between atoms: _86  and  _88
REMARK   30  A    between atoms: _88  and  _89
REMARK   31  A    between atoms: _88  and  _91
REMARK   32  A    between atoms: _91  and  _92
REMARK   33  A    between atoms: _97  and  _99
REMARK   34  A    between atoms: _99  and  _100
REMARK   35  A    between atoms: _99  and  _102
REMARK   36  A    between atoms: _102  and  _103
REMARK   37  A    between atoms: _106  and  _108
REMARK   38  A    between atoms: _108  and  _109
REMARK   39  A    between atoms: _108  and  _111
REMARK   40  A    between atoms: _111  and  _112
REMARK   41  A    between atoms: _112  and  _113
REMARK   42  A    between atoms: _118  and  _120
REMARK   43  A    between atoms: _120  and  _121
REMARK   44  A    between atoms: _120  and  _123
REMARK   45  A    between atoms: _123  and  _124
REMARK   46  A    between atoms: _130  and  _132
REMARK   47  A    between atoms: _143  and  _146
REMARK   48  A    between atoms: _146  and  _147
REMARK   49  A    between atoms: _155  and  _156
REMARK   50  A    between atoms: _164  and  _166
REMARK   51  A    between atoms: _166  and  _167
REMARK   52  A    between atoms: _166  and  _169
REMARK   53  A    between atoms: _169  and  _170
REMARK   54  A    between atoms: _170  and  _171
REMARK   55  A    between atoms: _174  and  _176
REMARK   56  A    between atoms: _176  and  _177
REMARK   57  A    between atoms: _176  and  _179
REMARK   58  A    between atoms: _179  and  _180
REMARK   59  A    between atoms: _185  and  _187
REMARK   60  A    between atoms: _187  and  _188
REMARK   61  A    between atoms: _187  and  _190
REMARK   62  A    between atoms: _190  and  _191
REMARK   63  A    between atoms: _191  and  _192
REMARK   64  A    between atoms: _195  and  _197
REMARK   65  A    between atoms: _197  and  _198
REMARK   66  A    between atoms: _197  and  _200
REMARK   67  A    between atoms: _200  and  _201
REMARK   68  A    between atoms: _204  and  _206
REMARK   69  A    between atoms: _206  and  _207
REMARK   70  A    between atoms: _206  and  _209
REMARK   71  A    between atoms: _209  and  _210
REMARK   72  A    between atoms: _211  and  ZN_454
REMARK   73  A    between atoms: _215  and  _217
REMARK   74  A    between atoms: _217  and  _218
REMARK   75  A    between atoms: _217  and  _220
REMARK   76  A    between atoms: _220  and  _221
REMARK   77  A    between atoms: _224  and  _226
REMARK   78  A    between atoms: _226  and  _227
REMARK   79  A    between atoms: _226  and  _229
REMARK   80  A    between atoms: _232  and  _234
REMARK   81  A    between atoms: _234  and  _235
REMARK   82  A    between atoms: _234  and  _237
REMARK   83  A    between atoms: _237  and  _238
REMARK   84  A    between atoms: _243  and  _245
REMARK   85  A    between atoms: _245  and  _246
REMARK   86  A    between atoms: _245  and  _248
REMARK   87  A    between atoms: _248  and  _249
REMARK   88  A    between atoms: _255  and  _257
REMARK   89  A    between atoms: _257  and  _258
REMARK   90  A    between atoms: _260  and  _262
REMARK   91  A    between atoms: _262  and  _263
REMARK   92  A    between atoms: _266  and  _268
REMARK   93  A    between atoms: _268  and  _269
REMARK   94  A    between atoms: _268  and  _271
REMARK   95  A    between atoms: _274  and  _276
REMARK   96  A    between atoms: _276  and  _277
REMARK   97  A    between atoms: _276  and  _279
REMARK   98  A    between atoms: _279  and  _280
REMARK   99  A    between atoms: _280  and  _281
REMARK  100  A    between atoms: _286  and  _288
REMARK  101  A    between atoms: _288  and  _289
REMARK  102  A    between atoms: _288  and  _291
REMARK  103  A    between atoms: _291  and  _292
REMARK  104  A    between atoms: _295  and  _297
REMARK  105  A    between atoms: _297  and  _298
REMARK  106  A    between atoms: _301  and  _303
REMARK  107  A    between atoms: _303  and  _304
REMARK  108  A    between atoms: _303  and  _306
REMARK  109  A    between atoms: _309  and  _311
REMARK  110  A    between atoms: _311  and  _312
REMARK  111  A    between atoms: _311  and  _314
REMARK  112  A    between atoms: _314  and  _315
REMARK  113  A    between atoms: _318  and  _320
REMARK  114  A    between atoms: _320  and  _321
REMARK  115  A    between atoms: _323  and  _325
REMARK  116  A    between atoms: _325  and  _326
REMARK  117  A    between atoms: _328  and  _330
REMARK  118  A    between atoms: _330  and  _331
REMARK  119  A    between atoms: _330  and  _333
REMARK  120  A    between atoms: _333  and  _334
REMARK  121  A    between atoms: _336  and  _338
REMARK  122  A    between atoms: _338  and  _339
REMARK  123  A    between atoms: _338  and  _341
REMARK  124  A    between atoms: _341  and  _342
REMARK  125  A    between atoms: _345  and  _347
REMARK  126  A    between atoms: _347  and  _348
REMARK  127  A    between atoms: _347  and  _350
REMARK  128  A    between atoms: _350  and  _351
REMARK  129  A    between atoms: _354  and  _356
REMARK  130  A    between atoms: _356  and  _357
REMARK  131  A    between atoms: _356  and  _359
REMARK  132  A    between atoms: _359  and  _360
REMARK  133  A    between atoms: _364  and  _365
REMARK  134  A    between atoms: _371  and  _372
REMARK  135  A    between atoms: _377  and  _379
REMARK  136  A    between atoms: _379  and  _380
REMARK  137  A    between atoms: _379  and  _382
REMARK  138  A    between atoms: _382  and  _383
REMARK  139  A    between atoms: _386  and  _388
REMARK  140  A    between atoms: _388  and  _389
REMARK  141  A    between atoms: _388  and  _391
REMARK  142  A    between atoms: _391  and  _392
REMARK  143  A    between atoms: _395  and  _397
REMARK  144  A    between atoms: _397  and  _398
REMARK  145  A    between atoms: _397  and  _400
REMARK  146  A    between atoms: _402  and  _404
REMARK  147  A    between atoms: _404  and  _405
REMARK  148  A    between atoms: _404  and  _407
REMARK  149  A    between atoms: _410  and  _412
REMARK  150  A    between atoms: _412  and  _413
REMARK  151  A    between atoms: _412  and  _415
REMARK  152  A    between atoms: _415  and  _416
REMARK  153  A    between atoms: _426  and  _428
REMARK  154  A    between atoms: _428  and  _429
REMARK  155  A    between atoms: _428  and  _431
REMARK  156  A    between atoms: _431  and  _432
REMARK  157  A    between atoms: _437  and  _439
REMARK  158  A    between atoms: _439  and  _440
REMARK  159  A    between atoms: _439  and  _442
REMARK  160  A    between atoms: _442  and  _443
REMARK  161  A    between atoms: _443  and  _444
REMARK  162  A    between atoms: _444  and  _445
REMARK                            x       y       z     vdW  Elec       q    Type
REMARK                         _______ _______ _______ _____ _____    ______ ____
ROOT
ATOM      1  O   HOH     1      12.868   6.925   8.454  0.00  0.00    +0.000 OA
ENDROOT
TORSDOF 0
REMARK  Name = ../refined-set-2016/3ryx/3ryx_pocket.pdb
REMARK  162 active torsions:
REMARK  status: ('A' for Active; 'I' for Inactive)
REMARK    1  A    between atoms: _1  and  _3
REMARK    2  A    between atoms: _3  and  _4
REMARK    3  A    between atoms: _3  and  _6
REMARK    4  A    between atoms: _6  and  _7
REMARK    5  A    between atoms: _17  and  _19
REMARK    6  A    between atoms: _19  and  _20
REMARK    7  A    between atoms: _19  and  _22
REMARK    8  A    between atoms: _22  and  _23
REMARK    9  A    between atoms: _28  and  _29
REMARK   10  A    between atoms: _31  and  _33
REMARK   11  A    between atoms: _33  and  _34
REMARK   12  A    between atoms: _33  and  _36
REMARK   13  A    between atoms: _36  and  _37
REMARK   14  A    between atoms: _43  and  _45
REMARK   15  A    between atoms: _45  and  _46
REMARK   16  A    between atoms: _45  and  _48
REMARK   17  A    between atoms: _48  and  _49
REMARK   18  A    between atoms: _52  and  _53
REMARK   19  A    between atoms: _58  and  _60
REMARK   20  A    between atoms: _60  and  _61
REMARK   21  A    between atoms: _60  and  _63
REMARK   22  A    between atoms: _63  and  _64
REMARK   23  A    between atoms: _69  and  _71
REMARK   24  A    between atoms: _71  and  _72
REMARK   25  A    between atoms: _71  and  _74
REMARK   26  A    between atoms: _74  and  _75
REMARK   27  A    between atoms: _80  and  _82
REMARK   28  A    between atoms: _82  and  _83
REMARK   29  A    between atoms: _86  and  _88
REMARK   30  A    between atoms: _88  and  _89
REMARK   31  A    between atoms: _88  and  _91
REMARK   32  A    between atoms: _91  and  _92
REMARK   33  A    between atoms: _97  and  _99
REMARK   34  A    between atoms: _99  and  _100
REMARK   35  A    between atoms: _99  and  _102
REMARK   36  A    between atoms: _102  and  _103
REMARK   37  A    between atoms: _106  and  _108
REMARK   38  A    between atoms: _108  and  _109
REMARK   39  A    between atoms: _108  and  _111
REMARK   40  A    between atoms: _111  and  _112
REMARK   41  A    between atoms: _112  and  _113
REMARK   42  A    between atoms: _118  and  _120
REMARK   43  A    between atoms: _120  and  _121
REMARK   44  A    between atoms: _120  and  _123
REMARK   45  A    between atoms: _123  and  _124
REMARK   46  A    between atoms: _130  and  _132
REMARK   47  A    between atoms: _143  and  _146
REMARK   48  A    between atoms: _146  and  _147
REMARK   49  A    between atoms: _155  and  _156
REMARK   50  A    between atoms: _164  and  _166
REMARK   51  A    between atoms: _166  and  _167
REMARK   52  A    between atoms: _166  and  _169
REMARK   53  A    between atoms: _169  and  _170
REMARK   54  A    between atoms: _170  and  _171
REMARK   55  A    between atoms: _174  and  _176
REMARK   56  A    between atoms: _176  and  _177
REMARK   57  A    between atoms: _176  and  _179
REMARK   58  A    between atoms: _179  and  _180
REMARK   59  A    between atoms: _185  and  _187
REMARK   60  A    between atoms: _187  and  _188
REMARK   61  A    between atoms: _187  and  _190
REMARK   62  A    between atoms: _190  and  _191
REMARK   63  A    between atoms: _191  and  _192
REMARK   64  A    between atoms: _195  and  _197
REMARK   65  A    between atoms: _197  and  _198
REMARK   66  A    between atoms: _197  and  _200
REMARK   67  A    between atoms: _200  and  _201
REMARK   68  A    between atoms: _204  and  _206
REMARK   69  A    between atoms: _206  and  _207
REMARK   70  A    between atoms: _206  and  _209
REMARK   71  A    between atoms: _209  and  _210
REMARK   72  A    between atoms: _211  and  ZN_454
REMARK   73  A    between atoms: _215  and  _217
REMARK   74  A    between atoms: _217  and  _218
REMARK   75  A    between atoms: _217  and  _220
REMARK   76  A    between atoms: _220  and  _221
REMARK   77  A    between atoms: _224  and  _226
REMARK   78  A    between atoms: _226  and  _227
REMARK   79  A    between atoms: _226  and  _229
REMARK   80  A    between atoms: _232  and  _234
REMARK   81  A    between atoms: _234  and  _235
REMARK   82  A    between atoms: _234  and  _237
REMARK   83  A    between atoms: _237  and  _238
REMARK   84  A    between atoms: _243  and  _245
REMARK   85  A    between atoms: _245  and  _246
REMARK   86  A    between atoms: _245  and  _248
REMARK   87  A    between atoms: _248  and  _249
REMARK   88  A    between atoms: _255  and  _257
REMARK   89  A    between atoms: _257  and  _258
REMARK   90  A    between atoms: _260  and  _262
REMARK   91  A    between atoms: _262  and  _263
REMARK   92  A    between atoms: _266  and  _268
REMARK   93  A    between atoms: _268  and  _269
REMARK   94  A    between atoms: _268  and  _271
REMARK   95  A    between atoms: _274  and  _276
REMARK   96  A    between atoms: _276  and  _277
REMARK   97  A    between atoms: _276  and  _279
REMARK   98  A    between atoms: _279  and  _280
REMARK   99  A    between atoms: _280  and  _281
REMARK  100  A    between atoms: _286  and  _288
REMARK  101  A    between atoms: _288  and  _289
REMARK  102  A    between atoms: _288  and  _291
REMARK  103  A    between atoms: _291  and  _292
REMARK  104  A    between atoms: _295  and  _297
REMARK  105  A    between atoms: _297  and  _298
REMARK  106  A    between atoms: _301  and  _303
REMARK  107  A    between atoms: _303  and  _304
REMARK  108  A    between atoms: _303  and  _306
REMARK  109  A    between atoms: _309  and  _311
REMARK  110  A    between atoms: _311  and  _312
REMARK  111  A    between atoms: _311  and  _314
REMARK  112  A    between atoms: _314  and  _315
REMARK  113  A    between atoms: _318  and  _320
REMARK  114  A    between atoms: _320  and  _321
REMARK  115  A    between atoms: _323  and  _325
REMARK  116  A    between atoms: _325  and  _326
REMARK  117  A    between atoms: _328  and  _330
REMARK  118  A    between atoms: _330  and  _331
REMARK  119  A    between atoms: _330  and  _333
REMARK  120  A    between atoms: _333  and  _334
REMARK  121  A    between atoms: _336  and  _338
REMARK  122  A    between atoms: _338  and  _339
REMARK  123  A    between atoms: _338  and  _341
REMARK  124  A    between atoms: _341  and  _342
REMARK  125  A    between atoms: _345  and  _347
REMARK  126  A    between atoms: _347  and  _348
REMARK  127  A    between atoms: _347  and  _350
REMARK  128  A    between atoms: _350  and  _351
REMARK  129  A    between atoms: _354  and  _356
REMARK  130  A    between atoms: _356  and  _357
REMARK  131  A    between atoms: _356  and  _359
REMARK  132  A    between atoms: _359  and  _360
REMARK  133  A    between atoms: _364  and  _365
REMARK  134  A    between atoms: _371  and  _372
REMARK  135  A    between atoms: _377  and  _379
REMARK  136  A    between atoms: _379  and  _380
REMARK  137  A    between atoms: _379  and  _382
REMARK  138  A    between atoms: _382  and  _383
REMARK  139  A    between atoms: _386  and  _388
REMARK  140  A    between atoms: _388  and  _389
REMARK  141  A    between atoms: _388  and  _391
REMARK  142  A    between atoms: _391  and  _392
REMARK  143  A    between atoms: _395  and  _397
REMARK  144  A    between atoms: _397  and  _398
REMARK  145  A    between atoms: _397  and  _400
REMARK  146  A    between atoms: _402  and  _404
REMARK  147  A    between atoms: _404  and  _405
REMARK  148  A    between atoms: _404  and  _407
REMARK  149  A    between atoms: _410  and  _412
REMARK  150  A    between atoms: _412  and  _413
REMARK  151  A    between atoms: _412  and  _415
REMARK  152  A    between atoms: _415  and  _416
REMARK  153  A    between atoms: _426  and  _428
REMARK  154  A    between atoms: _428  and  _429
REMARK  155  A    between atoms: _428  and  _431
REMARK  156  A    between atoms: _431  and  _432
REMARK  157  A    between atoms: _437  and  _439
REMARK  158  A    between atoms: _439  and  _440
REMARK  159  A    between atoms: _439  and  _442
REMARK  160  A    between atoms: _442  and  _443
REMARK  161  A    between atoms: _443  and  _444
REMARK  162  A    between atoms: _444  and  _445
REMARK                            x       y       z     vdW  Elec       q    Type
REMARK                         _______ _______ _______ _____ _____    ______ ____
ROOT
ATOM      1  O   HOH     1      26.556  11.931  15.918  0.00  0.00    +0.000 OA
ENDROOT
TORSDOF 0
REMARK  Name = ../refined-set-2016/3ryx/3ryx_pocket.pdb
REMARK  162 active torsions:
REMARK  status: ('A' for Active; 'I' for Inactive)
REMARK    1  A    between atoms: _1  and  _3
REMARK    2  A    between atoms: _3  and  _4
REMARK    3  A    between atoms: _3  and  _6
REMARK    4  A    between atoms: _6  and  _7
REMARK    5  A    between atoms: _17  and  _19
REMARK    6  A    between atoms: _19  and  _20
REMARK    7  A    between atoms: _19  and  _22
REMARK    8  A    between atoms: _22  and  _23
REMARK    9  A    between atoms: _28  and  _29
REMARK   10  A    between atoms: _31  and  _33
REMARK   11  A    between atoms: _33  and  _34
REMARK   12  A    between atoms: _33  and  _36
REMARK   13  A    between atoms: _36  and  _37
REMARK   14  A    between atoms: _43  and  _45
REMARK   15  A    between atoms: _45  and  _46
REMARK   16  A    between atoms: _45  and  _48
REMARK   17  A    between atoms: _48  and  _49
REMARK   18  A    between atoms: _52  and  _53
REMARK   19  A    between atoms: _58  and  _60
REMARK   20  A    between atoms: _60  and  _61
REMARK   21  A    between atoms: _60  and  _63
REMARK   22  A    between atoms: _63  and  _64
REMARK   23  A    between atoms: _69  and  _71
REMARK   24  A    between atoms: _71  and  _72
REMARK   25  A    between atoms: _71  and  _74
REMARK   26  A    between atoms: _74  and  _75
REMARK   27  A    between atoms: _80  and  _82
REMARK   28  A    between atoms: _82  and  _83
REMARK   29  A    between atoms: _86  and  _88
REMARK   30  A    between atoms: _88  and  _89
REMARK   31  A    between atoms: _88  and  _91
REMARK   32  A    between atoms: _91  and  _92
REMARK   33  A    between atoms: _97  and  _99
REMARK   34  A    between atoms: _99  and  _100
REMARK   35  A    between atoms: _99  and  _102
REMARK   36  A    between atoms: _102  and  _103
REMARK   37  A    between atoms: _106  and  _108
REMARK   38  A    between atoms: _108  and  _109
REMARK   39  A    between atoms: _108  and  _111
REMARK   40  A    between atoms: _111  and  _112
REMARK   41  A    between atoms: _112  and  _113
REMARK   42  A    between atoms: _118  and  _120
REMARK   43  A    between atoms: _120  and  _121
REMARK   44  A    between atoms: _120  and  _123
REMARK   45  A    between atoms: _123  and  _124
REMARK   46  A    between atoms: _130  and  _132
REMARK   47  A    between atoms: _143  and  _146
REMARK   48  A    between atoms: _146  and  _147
REMARK   49  A    between atoms: _155  and  _156
REMARK   50  A    between atoms: _164  and  _166
REMARK   51  A    between atoms: _166  and  _167
REMARK   52  A    between atoms: _166  and  _169
REMARK   53  A    between atoms: _169  and  _170
REMARK   54  A    between atoms: _170  and  _171
REMARK   55  A    between atoms: _174  and  _176
REMARK   56  A    between atoms: _176  and  _177
REMARK   57  A    between atoms: _176  and  _179
REMARK   58  A    between atoms: _179  and  _180
REMARK   59  A    between atoms: _185  and  _187
REMARK   60  A    between atoms: _187  and  _188
REMARK   61  A    between atoms: _187  and  _190
REMARK   62  A    between atoms: _190  and  _191
REMARK   63  A    between atoms: _191  and  _192
REMARK   64  A    between atoms: _195  and  _197
REMARK   65  A    between atoms: _197  and  _198
REMARK   66  A    between atoms: _197  and  _200
REMARK   67  A    between atoms: _200  and  _201
REMARK   68  A    between atoms: _204  and  _206
REMARK   69  A    between atoms: _206  and  _207
REMARK   70  A    between atoms: _206  and  _209
REMARK   71  A    between atoms: _209  and  _210
REMARK   72  A    between atoms: _211  and  ZN_454
REMARK   73  A    between atoms: _215  and  _217
REMARK   74  A    between atoms: _217  and  _218
REMARK   75  A    between atoms: _217  and  _220
REMARK   76  A    between atoms: _220  and  _221
REMARK   77  A    between atoms: _224  and  _226
REMARK   78  A    between atoms: _226  and  _227
REMARK   79  A    between atoms: _226  and  _229
REMARK   80  A    between atoms: _232  and  _234
REMARK   81  A    between atoms: _234  and  _235
REMARK   82  A    between atoms: _234  and  _237
REMARK   83  A    between atoms: _237  and  _238
REMARK   84  A    between atoms: _243  and  _245
REMARK   85  A    between atoms: _245  and  _246
REMARK   86  A    between atoms: _245  and  _248
REMARK   87  A    between atoms: _248  and  _249
REMARK   88  A    between atoms: _255  and  _257
REMARK   89  A    between atoms: _257  and  _258
REMARK   90  A    between atoms: _260  and  _262
REMARK   91  A    between atoms: _262  and  _263
REMARK   92  A    between atoms: _266  and  _268
REMARK   93  A    between atoms: _268  and  _269
REMARK   94  A    between atoms: _268  and  _271
REMARK   95  A    between atoms: _274  and  _276
REMARK   96  A    between atoms: _276  and  _277
REMARK   97  A    between atoms: _276  and  _279
REMARK   98  A    between atoms: _279  and  _280
REMARK   99  A    between atoms: _280  and  _281
REMARK  100  A    between atoms: _286  and  _288
REMARK  101  A    between atoms: _288  and  _289
REMARK  102  A    between atoms: _288  and  _291
REMARK  103  A    between atoms: _291  and  _292
REMARK  104  A    between atoms: _295  and  _297
REMARK  105  A    between atoms: _297  and  _298
REMARK  106  A    between atoms: _301  and  _303
REMARK  107  A    between atoms: _303  and  _304
REMARK  108  A    between atoms: _303  and  _306
REMARK  109  A    between atoms: _309  and  _311
REMARK  110  A    between atoms: _311  and  _312
REMARK  111  A    between atoms: _311  and  _314
REMARK  112  A    between atoms: _314  and  _315
REMARK  113  A    between atoms: _318  and  _320
REMARK  114  A    between atoms: _320  and  _321
REMARK  115  A    between atoms: _323  and  _325
REMARK  116  A    between atoms: _325  and  _326
REMARK  117  A    between atoms: _328  and  _330
REMARK  118  A    between atoms: _330  and  _331
REMARK  119  A    between atoms: _330  and  _333
REMARK  120  A    between atoms: _333  and  _334
REMARK  121  A    between atoms: _336  and  _338
REMARK  122  A    between atoms: _338  and  _339
REMARK  123  A    between atoms: _338  and  _341
REMARK  124  A    between atoms: _341  and  _342
REMARK  125  A    between atoms: _345  and  _347
REMARK  126  A    between atoms: _347  and  _348
REMARK  127  A    between atoms: _347  and  _350
REMARK  128  A    between atoms: _350  and  _351
REMARK  129  A    between atoms: _354  and  _356
REMARK  130  A    between atoms: _356  and  _357
REMARK  131  A    between atoms: _356  and  _359
REMARK  132  A    between atoms: _359  and  _360
REMARK  133  A    between atoms: _364  and  _365
REMARK  134  A    between atoms: _371  and  _372
REMARK  135  A    between atoms: _377  and  _379
REMARK  136  A    between atoms: _379  and  _380
REMARK  137  A    between atoms: _379  and  _382
REMARK  138  A    between atoms: _382  and  _383
REMARK  139  A    between atoms: _386  and  _388
REMARK  140  A    between atoms: _388  and  _389
REMARK  141  A    between atoms: _388  and  _391
REMARK  142  A    between atoms: _391  and  _392
REMARK  143  A    between atoms: _395  and  _397
REMARK  144  A    between atoms: _397  and  _398
REMARK  145  A    between atoms: _397  and  _400
REMARK  146  A    between atoms: _402  and  _404
REMARK  147  A    between atoms: _404  and  _405
REMARK  148  A    between atoms: _404  and  _407
REMARK  149  A    between atoms: _410  and  _412
REMARK  150  A    between atoms: _412  and  _413
REMARK  151  A    between atoms: _412  and  _415
REMARK  152  A    between atoms: _415  and  _416
REMARK  153  A    between atoms: _426  and  _428
REMARK  154  A    between atoms: _428  and  _429
REMARK  155  A    between atoms: _428  and  _431
REMARK  156  A    between atoms: _431  and  _432
REMARK  157  A    between atoms: _437  and  _439
REMARK  158  A    between atoms: _439  and  _440
REMARK  159  A    between atoms: _439  and  _442
REMARK  160  A    between atoms: _442  and  _443
REMARK  161  A    between atoms: _443  and  _444
REMARK  162  A    between atoms: _444  and  _445
REMARK                            x       y       z     vdW  Elec       q    Type
REMARK                         _______ _______ _______ _____ _____    ______ ____
ROOT
ATOM      1  O   HOH     1      15.881   1.258  12.202  0.00  0.00    +0.000 OA
ENDROOT
TORSDOF 0
REMARK  Name = ../refined-set-2016/3ryx/3ryx_pocket.pdb
REMARK  162 active torsions:
REMARK  status: ('A' for Active; 'I' for Inactive)
REMARK    1  A    between atoms: _1  and  _3
REMARK    2  A    between atoms: _3  and  _4
REMARK    3  A    between atoms: _3  and  _6
REMARK    4  A    between atoms: _6  and  _7
REMARK    5  A    between atoms: _17  and  _19
REMARK    6  A    between atoms: _19  and  _20
REMARK    7  A    between atoms: _19  and  _22
REMARK    8  A    between atoms: _22  and  _23
REMARK    9  A    between atoms: _28  and  _29
REMARK   10  A    between atoms: _31  and  _33
REMARK   11  A    between atoms: _33  and  _34
REMARK   12  A    between atoms: _33  and  _36
REMARK   13  A    between atoms: _36  and  _37
REMARK   14  A    between atoms: _43  and  _45
REMARK   15  A    between atoms: _45  and  _46
REMARK   16  A    between atoms: _45  and  _48
REMARK   17  A    between atoms: _48  and  _49
REMARK   18  A    between atoms: _52  and  _53
REMARK   19  A    between atoms: _58  and  _60
REMARK   20  A    between atoms: _60  and  _61
REMARK   21  A    between atoms: _60  and  _63
REMARK   22  A    between atoms: _63  and  _64
REMARK   23  A    between atoms: _69  and  _71
REMARK   24  A    between atoms: _71  and  _72
REMARK   25  A    between atoms: _71  and  _74
REMARK   26  A    between atoms: _74  and  _75
REMARK   27  A    between atoms: _80  and  _82
REMARK   28  A    between atoms: _82  and  _83
REMARK   29  A    between atoms: _86  and  _88
REMARK   30  A    between atoms: _88  and  _89
REMARK   31  A    between atoms: _88  and  _91
REMARK   32  A    between atoms: _91  and  _92
REMARK   33  A    between atoms: _97  and  _99
REMARK   34  A    between atoms: _99  and  _100
REMARK   35  A    between atoms: _99  and  _102
REMARK   36  A    between atoms: _102  and  _103
REMARK   37  A    between atoms: _106  and  _108
REMARK   38  A    between atoms: _108  and  _109
REMARK   39  A    between atoms: _108  and  _111
REMARK   40  A    between atoms: _111  and  _112
REMARK   41  A    between atoms: _112  and  _113
REMARK   42  A    between atoms: _118  and  _120
REMARK   43  A    between atoms: _120  and  _121
REMARK   44  A    between atoms: _120  and  _123
REMARK   45  A    between atoms: _123  and  _124
REMARK   46  A    between atoms: _130  and  _132
REMARK   47  A    between atoms: _143  and  _146
REMARK   48  A    between atoms: _146  and  _147
REMARK   49  A    between atoms: _155  and  _156
REMARK   50  A    between atoms: _164  and  _166
REMARK   51  A    between atoms: _166  and  _167
REMARK   52  A    between atoms: _166  and  _169
REMARK   53  A    between atoms: _169  and  _170
REMARK   54  A    between atoms: _170  and  _171
REMARK   55  A    between atoms: _174  and  _176
REMARK   56  A    between atoms: _176  and  _177
REMARK   57  A    between atoms: _176  and  _179
REMARK   58  A    between atoms: _179  and  _180
REMARK   59  A    between atoms: _185  and  _187
REMARK   60  A    between atoms: _187  and  _188
REMARK   61  A    between atoms: _187  and  _190
REMARK   62  A    between atoms: _190  and  _191
REMARK   63  A    between atoms: _191  and  _192
REMARK   64  A    between atoms: _195  and  _197
REMARK   65  A    between atoms: _197  and  _198
REMARK   66  A    between atoms: _197  and  _200
REMARK   67  A    between atoms: _200  and  _201
REMARK   68  A    between atoms: _204  and  _206
REMARK   69  A    between atoms: _206  and  _207
REMARK   70  A    between atoms: _206  and  _209
REMARK   71  A    between atoms: _209  and  _210
REMARK   72  A    between atoms: _211  and  ZN_454
REMARK   73  A    between atoms: _215  and  _217
REMARK   74  A    between atoms: _217  and  _218
REMARK   75  A    between atoms: _217  and  _220
REMARK   76  A    between atoms: _220  and  _221
REMARK   77  A    between atoms: _224  and  _226
REMARK   78  A    between atoms: _226  and  _227
REMARK   79  A    between atoms: _226  and  _229
REMARK   80  A    between atoms: _232  and  _234
REMARK   81  A    between atoms: _234  and  _235
REMARK   82  A    between atoms: _234  and  _237
REMARK   83  A    between atoms: _237  and  _238
REMARK   84  A    between atoms: _243  and  _245
REMARK   85  A    between atoms: _245  and  _246
REMARK   86  A    between atoms: _245  and  _248
REMARK   87  A    between atoms: _248  and  _249
REMARK   88  A    between atoms: _255  and  _257
REMARK   89  A    between atoms: _257  and  _258
REMARK   90  A    between atoms: _260  and  _262
REMARK   91  A    between atoms: _262  and  _263
REMARK   92  A    between atoms: _266  and  _268
REMARK   93  A    between atoms: _268  and  _269
REMARK   94  A    between atoms: _268  and  _271
REMARK   95  A    between atoms: _274  and  _276
REMARK   96  A    between atoms: _276  and  _277
REMARK   97  A    between atoms: _276  and  _279
REMARK   98  A    between atoms: _279  and  _280
REMARK   99  A    between atoms: _280  and  _281
REMARK  100  A    between atoms: _286  and  _288
REMARK  101  A    between atoms: _288  and  _289
REMARK  102  A    between atoms: _288  and  _291
REMARK  103  A    between atoms: _291  and  _292
REMARK  104  A    between atoms: _295  and  _297
REMARK  105  A    between atoms: _297  and  _298
REMARK  106  A    between atoms: _301  and  _303
REMARK  107  A    between atoms: _303  and  _304
REMARK  108  A    between atoms: _303  and  _306
REMARK  109  A    between atoms: _309  and  _311
REMARK  110  A    between atoms: _311  and  _312
REMARK  111  A    between atoms: _311  and  _314
REMARK  112  A    between atoms: _314  and  _315
REMARK  113  A    between atoms: _318  and  _320
REMARK  114  A    between atoms: _320  and  _321
REMARK  115  A    between atoms: _323  and  _325
REMARK  116  A    between atoms: _325  and  _326
REMARK  117  A    between atoms: _328  and  _330
REMARK  118  A    between atoms: _330  and  _331
REMARK  119  A    between atoms: _330  and  _333
REMARK  120  A    between atoms: _333  and  _334
REMARK  121  A    between atoms: _336  and  _338
REMARK  122  A    between atoms: _338  and  _339
REMARK  123  A    between atoms: _338  and  _341
REMARK  124  A    between atoms: _341  and  _342
REMARK  125  A    between atoms: _345  and  _347
REMARK  126  A    between atoms: _347  and  _348
REMARK  127  A    between atoms: _347  and  _350
REMARK  128  A    between atoms: _350  and  _351
REMARK  129  A    between atoms: _354  and  _356
REMARK  130  A    between atoms: _356  and  _357
REMARK  131  A    between atoms: _356  and  _359
REMARK  132  A    between atoms: _359  and  _360
REMARK  133  A    between atoms: _364  and  _365
REMARK  134  A    between atoms: _371  and  _372
REMARK  135  A    between atoms: _377  and  _379
REMARK  136  A    between atoms: _379  and  _380
REMARK  137  A    between atoms: _379  and  _382
REMARK  138  A    between atoms: _382  and  _383
REMARK  139  A    between atoms: _386  and  _388
REMARK  140  A    between atoms: _388  and  _389
REMARK  141  A    between atoms: _388  and  _391
REMARK  142  A    between atoms: _391  and  _392
REMARK  143  A    between atoms: _395  and  _397
REMARK  144  A    between atoms: _397  and  _398
REMARK  145  A    between atoms: _397  and  _400
REMARK  146  A    between atoms: _402  and  _404
REMARK  147  A    between atoms: _404  and  _405
REMARK  148  A    between atoms: _404  and  _407
REMARK  149  A    between atoms: _410  and  _412
REMARK  150  A    between atoms: _412  and  _413
REMARK  151  A    between atoms: _412  and  _415
REMARK  152  A    between atoms: _415  and  _416
REMARK  153  A    between atoms: _426  and  _428
REMARK  154  A    between atoms: _428  and  _429
REMARK  155  A    between atoms: _428  and  _431
REMARK  156  A    between atoms: _431  and  _432
REMARK  157  A    between atoms: _437  and  _439
REMARK  158  A    between atoms: _439  and  _440
REMARK  159  A    between atoms: _439  and  _442
REMARK  160  A    between atoms: _442  and  _443
REMARK  161  A    between atoms: _443  and  _444
REMARK  162  A    between atoms: _444  and  _445
REMARK                            x       y       z     vdW  Elec       q    Type
REMARK                         _______ _______ _______ _____ _____    ______ ____
ROOT
ATOM      1  O   HOH     1      14.373   4.903   6.739  0.00  0.00    +0.000 OA
ENDROOT
TORSDOF 0
REMARK  Name = ../refined-set-2016/3ryx/3ryx_pocket.pdb
REMARK  162 active torsions:
REMARK  status: ('A' for Active; 'I' for Inactive)
REMARK    1  A    between atoms: _1  and  _3
REMARK    2  A    between atoms: _3  and  _4
REMARK    3  A    between atoms: _3  and  _6
REMARK    4  A    between atoms: _6  and  _7
REMARK    5  A    between atoms: _17  and  _19
REMARK    6  A    between atoms: _19  and  _20
REMARK    7  A    between atoms: _19  and  _22
REMARK    8  A    between atoms: _22  and  _23
REMARK    9  A    between atoms: _28  and  _29
REMARK   10  A    between atoms: _31  and  _33
REMARK   11  A    between atoms: _33  and  _34
REMARK   12  A    between atoms: _33  and  _36
REMARK   13  A    between atoms: _36  and  _37
REMARK   14  A    between atoms: _43  and  _45
REMARK   15  A    between atoms: _45  and  _46
REMARK   16  A    between atoms: _45  and  _48
REMARK   17  A    between atoms: _48  and  _49
REMARK   18  A    between atoms: _52  and  _53
REMARK   19  A    between atoms: _58  and  _60
REMARK   20  A    between atoms: _60  and  _61
REMARK   21  A    between atoms: _60  and  _63
REMARK   22  A    between atoms: _63  and  _64
REMARK   23  A    between atoms: _69  and  _71
REMARK   24  A    between atoms: _71  and  _72
REMARK   25  A    between atoms: _71  and  _74
REMARK   26  A    between atoms: _74  and  _75
REMARK   27  A    between atoms: _80  and  _82
REMARK   28  A    between atoms: _82  and  _83
REMARK   29  A    between atoms: _86  and  _88
REMARK   30  A    between atoms: _88  and  _89
REMARK   31  A    between atoms: _88  and  _91
REMARK   32  A    between atoms: _91  and  _92
REMARK   33  A    between atoms: _97  and  _99
REMARK   34  A    between atoms: _99  and  _100
REMARK   35  A    between atoms: _99  and  _102
REMARK   36  A    between atoms: _102  and  _103
REMARK   37  A    between atoms: _106  and  _108
REMARK   38  A    between atoms: _108  and  _109
REMARK   39  A    between atoms: _108  and  _111
REMARK   40  A    between atoms: _111  and  _112
REMARK   41  A    between atoms: _112  and  _113
REMARK   42  A    between atoms: _118  and  _120
REMARK   43  A    between atoms: _120  and  _121
REMARK   44  A    between atoms: _120  and  _123
REMARK   45  A    between atoms: _123  and  _124
REMARK   46  A    between atoms: _130  and  _132
REMARK   47  A    between atoms: _143  and  _146
REMARK   48  A    between atoms: _146  and  _147
REMARK   49  A    between atoms: _155  and  _156
REMARK   50  A    between atoms: _164  and  _166
REMARK   51  A    between atoms: _166  and  _167
REMARK   52  A    between atoms: _166  and  _169
REMARK   53  A    between atoms: _169  and  _170
REMARK   54  A    between atoms: _170  and  _171
REMARK   55  A    between atoms: _174  and  _176
REMARK   56  A    between atoms: _176  and  _177
REMARK   57  A    between atoms: _176  and  _179
REMARK   58  A    between atoms: _179  and  _180
REMARK   59  A    between atoms: _185  and  _187
REMARK   60  A    between atoms: _187  and  _188
REMARK   61  A    between atoms: _187  and  _190
REMARK   62  A    between atoms: _190  and  _191
REMARK   63  A    between atoms: _191  and  _192
REMARK   64  A    between atoms: _195  and  _197
REMARK   65  A    between atoms: _197  and  _198
REMARK   66  A    between atoms: _197  and  _200
REMARK   67  A    between atoms: _200  and  _201
REMARK   68  A    between atoms: _204  and  _206
REMARK   69  A    between atoms: _206  and  _207
REMARK   70  A    between atoms: _206  and  _209
REMARK   71  A    between atoms: _209  and  _210
REMARK   72  A    between atoms: _211  and  ZN_454
REMARK   73  A    between atoms: _215  and  _217
REMARK   74  A    between atoms: _217  and  _218
REMARK   75  A    between atoms: _217  and  _220
REMARK   76  A    between atoms: _220  and  _221
REMARK   77  A    between atoms: _224  and  _226
REMARK   78  A    between atoms: _226  and  _227
REMARK   79  A    between atoms: _226  and  _229
REMARK   80  A    between atoms: _232  and  _234
REMARK   81  A    between atoms: _234  and  _235
REMARK   82  A    between atoms: _234  and  _237
REMARK   83  A    between atoms: _237  and  _238
REMARK   84  A    between atoms: _243  and  _245
REMARK   85  A    between atoms: _245  and  _246
REMARK   86  A    between atoms: _245  and  _248
REMARK   87  A    between atoms: _248  and  _249
REMARK   88  A    between atoms: _255  and  _257
REMARK   89  A    between atoms: _257  and  _258
REMARK   90  A    between atoms: _260  and  _262
REMARK   91  A    between atoms: _262  and  _263
REMARK   92  A    between atoms: _266  and  _268
REMARK   93  A    between atoms: _268  and  _269
REMARK   94  A    between atoms: _268  and  _271
REMARK   95  A    between atoms: _274  and  _276
REMARK   96  A    between atoms: _276  and  _277
REMARK   97  A    between atoms: _276  and  _279
REMARK   98  A    between atoms: _279  and  _280
REMARK   99  A    between atoms: _280  and  _281
REMARK  100  A    between atoms: _286  and  _288
REMARK  101  A    between atoms: _288  and  _289
REMARK  102  A    between atoms: _288  and  _291
REMARK  103  A    between atoms: _291  and  _292
REMARK  104  A    between atoms: _295  and  _297
REMARK  105  A    between atoms: _297  and  _298
REMARK  106  A    between atoms: _301  and  _303
REMARK  107  A    between atoms: _303  and  _304
REMARK  108  A    between atoms: _303  and  _306
REMARK  109  A    between atoms: _309  and  _311
REMARK  110  A    between atoms: _311  and  _312
REMARK  111  A    between atoms: _311  and  _314
REMARK  112  A    between atoms: _314  and  _315
REMARK  113  A    between atoms: _318  and  _320
REMARK  114  A    between atoms: _320  and  _321
REMARK  115  A    between atoms: _323  and  _325
REMARK  116  A    between atoms: _325  and  _326
REMARK  117  A    between atoms: _328  and  _330
REMARK  118  A    between atoms: _330  and  _331
REMARK  119  A    between atoms: _330  and  _333
REMARK  120  A    between atoms: _333  and  _334
REMARK  121  A    between atoms: _336  and  _338
REMARK  122  A    between atoms: _338  and  _339
REMARK  123  A    between atoms: _338  and  _341
REMARK  124  A    between atoms: _341  and  _342
REMARK  125  A    between atoms: _345  and  _347
REMARK  126  A    between atoms: _347  and  _348
REMARK  127  A    between atoms: _347  and  _350
REMARK  128  A    between atoms: _350  and  _351
REMARK  129  A    between atoms: _354  and  _356
REMARK  130  A    between atoms: _356  and  _357
REMARK  131  A    between atoms: _356  and  _359
REMARK  132  A    between atoms: _359  and  _360
REMARK  133  A    between atoms: _364  and  _365
REMARK  134  A    between atoms: _371  and  _372
REMARK  135  A    between atoms: _377  and  _379
REMARK  136  A    between atoms: _379  and  _380
REMARK  137  A    between atoms: _379  and  _382
REMARK  138  A    between atoms: _382  and  _383
REMARK  139  A    between atoms: _386  and  _388
REMARK  140  A    between atoms: _388  and  _389
REMARK  141  A    between atoms: _388  and  _391
REMARK  142  A    between atoms: _391  and  _392
REMARK  143  A    between atoms: _395  and  _397
REMARK  144  A    between atoms: _397  and  _398
REMARK  145  A    between atoms: _397  and  _400
REMARK  146  A    between atoms: _402  and  _404
REMARK  147  A    between atoms: _404  and  _405
REMARK  148  A    between atoms: _404  and  _407
REMARK  149  A    between atoms: _410  and  _412
REMARK  150  A    between atoms: _412  and  _413
REMARK  151  A    between atoms: _412  and  _415
REMARK  152  A    between atoms: _415  and  _416
REMARK  153  A    between atoms: _426  and  _428
REMARK  154  A    between atoms: _428  and  _429
REMARK  155  A    between atoms: _428  and  _431
REMARK  156  A    between atoms: _431  and  _432
REMARK  157  A    between atoms: _437  and  _439
REMARK  158  A    between atoms: _439  and  _440
REMARK  159  A    between atoms: _439  and  _442
REMARK  160  A    between atoms: _442  and  _443
REMARK  161  A    between atoms: _443  and  _444
REMARK  162  A    between atoms: _444  and  _445
REMARK                            x       y       z     vdW  Elec       q    Type
REMARK                         _______ _______ _______ _____ _____    ______ ____
ROOT
ATOM      1  O   HOH     1      14.503   5.764  12.200  0.00  0.00    +0.000 OA
ENDROOT
TORSDOF 0
REMARK  Name = ../refined-set-2016/3ryx/3ryx_pocket.pdb
REMARK  162 active torsions:
REMARK  status: ('A' for Active; 'I' for Inactive)
REMARK    1  A    between atoms: _1  and  _3
REMARK    2  A    between atoms: _3  and  _4
REMARK    3  A    between atoms: _3  and  _6
REMARK    4  A    between atoms: _6  and  _7
REMARK    5  A    between atoms: _17  and  _19
REMARK    6  A    between atoms: _19  and  _20
REMARK    7  A    between atoms: _19  and  _22
REMARK    8  A    between atoms: _22  and  _23
REMARK    9  A    between atoms: _28  and  _29
REMARK   10  A    between atoms: _31  and  _33
REMARK   11  A    between atoms: _33  and  _34
REMARK   12  A    between atoms: _33  and  _36
REMARK   13  A    between atoms: _36  and  _37
REMARK   14  A    between atoms: _43  and  _45
REMARK   15  A    between atoms: _45  and  _46
REMARK   16  A    between atoms: _45  and  _48
REMARK   17  A    between atoms: _48  and  _49
REMARK   18  A    between atoms: _52  and  _53
REMARK   19  A    between atoms: _58  and  _60
REMARK   20  A    between atoms: _60  and  _61
REMARK   21  A    between atoms: _60  and  _63
REMARK   22  A    between atoms: _63  and  _64
REMARK   23  A    between atoms: _69  and  _71
REMARK   24  A    between atoms: _71  and  _72
REMARK   25  A    between atoms: _71  and  _74
REMARK   26  A    between atoms: _74  and  _75
REMARK   27  A    between atoms: _80  and  _82
REMARK   28  A    between atoms: _82  and  _83
REMARK   29  A    between atoms: _86  and  _88
REMARK   30  A    between atoms: _88  and  _89
REMARK   31  A    between atoms: _88  and  _91
REMARK   32  A    between atoms: _91  and  _92
REMARK   33  A    between atoms: _97  and  _99
REMARK   34  A    between atoms: _99  and  _100
REMARK   35  A    between atoms: _99  and  _102
REMARK   36  A    between atoms: _102  and  _103
REMARK   37  A    between atoms: _106  and  _108
REMARK   38  A    between atoms: _108  and  _109
REMARK   39  A    between atoms: _108  and  _111
REMARK   40  A    between atoms: _111  and  _112
REMARK   41  A    between atoms: _112  and  _113
REMARK   42  A    between atoms: _118  and  _120
REMARK   43  A    between atoms: _120  and  _121
REMARK   44  A    between atoms: _120  and  _123
REMARK   45  A    between atoms: _123  and  _124
REMARK   46  A    between atoms: _130  and  _132
REMARK   47  A    between atoms: _143  and  _146
REMARK   48  A    between atoms: _146  and  _147
REMARK   49  A    between atoms: _155  and  _156
REMARK   50  A    between atoms: _164  and  _166
REMARK   51  A    between atoms: _166  and  _167
REMARK   52  A    between atoms: _166  and  _169
REMARK   53  A    between atoms: _169  and  _170
REMARK   54  A    between atoms: _170  and  _171
REMARK   55  A    between atoms: _174  and  _176
REMARK   56  A    between atoms: _176  and  _177
REMARK   57  A    between atoms: _176  and  _179
REMARK   58  A    between atoms: _179  and  _180
REMARK   59  A    between atoms: _185  and  _187
REMARK   60  A    between atoms: _187  and  _188
REMARK   61  A    between atoms: _187  and  _190
REMARK   62  A    between atoms: _190  and  _191
REMARK   63  A    between atoms: _191  and  _192
REMARK   64  A    between atoms: _195  and  _197
REMARK   65  A    between atoms: _197  and  _198
REMARK   66  A    between atoms: _197  and  _200
REMARK   67  A    between atoms: _200  and  _201
REMARK   68  A    between atoms: _204  and  _206
REMARK   69  A    between atoms: _206  and  _207
REMARK   70  A    between atoms: _206  and  _209
REMARK   71  A    between atoms: _209  and  _210
REMARK   72  A    between atoms: _211  and  ZN_454
REMARK   73  A    between atoms: _215  and  _217
REMARK   74  A    between atoms: _217  and  _218
REMARK   75  A    between atoms: _217  and  _220
REMARK   76  A    between atoms: _220  and  _221
REMARK   77  A    between atoms: _224  and  _226
REMARK   78  A    between atoms: _226  and  _227
REMARK   79  A    between atoms: _226  and  _229
REMARK   80  A    between atoms: _232  and  _234
REMARK   81  A    between atoms: _234  and  _235
REMARK   82  A    between atoms: _234  and  _237
REMARK   83  A    between atoms: _237  and  _238
REMARK   84  A    between atoms: _243  and  _245
REMARK   85  A    between atoms: _245  and  _246
REMARK   86  A    between atoms: _245  and  _248
REMARK   87  A    between atoms: _248  and  _249
REMARK   88  A    between atoms: _255  and  _257
REMARK   89  A    between atoms: _257  and  _258
REMARK   90  A    between atoms: _260  and  _262
REMARK   91  A    between atoms: _262  and  _263
REMARK   92  A    between atoms: _266  and  _268
REMARK   93  A    between atoms: _268  and  _269
REMARK   94  A    between atoms: _268  and  _271
REMARK   95  A    between atoms: _274  and  _276
REMARK   96  A    between atoms: _276  and  _277
REMARK   97  A    between atoms: _276  and  _279
REMARK   98  A    between atoms: _279  and  _280
REMARK   99  A    between atoms: _280  and  _281
REMARK  100  A    between atoms: _286  and  _288
REMARK  101  A    between atoms: _288  and  _289
REMARK  102  A    between atoms: _288  and  _291
REMARK  103  A    between atoms: _291  and  _292
REMARK  104  A    between atoms: _295  and  _297
REMARK  105  A    between atoms: _297  and  _298
REMARK  106  A    between atoms: _301  and  _303
REMARK  107  A    between atoms: _303  and  _304
REMARK  108  A    between atoms: _303  and  _306
REMARK  109  A    between atoms: _309  and  _311
REMARK  110  A    between atoms: _311  and  _312
REMARK  111  A    between atoms: _311  and  _314
REMARK  112  A    between atoms: _314  and  _315
REMARK  113  A    between atoms: _318  and  _320
REMARK  114  A    between atoms: _320  and  _321
REMARK  115  A    between atoms: _323  and  _325
REMARK  116  A    between atoms: _325  and  _326
REMARK  117  A    between atoms: _328  and  _330
REMARK  118  A    between atoms: _330  and  _331
REMARK  119  A    between atoms: _330  and  _333
REMARK  120  A    between atoms: _333  and  _334
REMARK  121  A    between atoms: _336  and  _338
REMARK  122  A    between atoms: _338  and  _339
REMARK  123  A    between atoms: _338  and  _341
REMARK  124  A    between atoms: _341  and  _342
REMARK  125  A    between atoms: _345  and  _347
REMARK  126  A    between atoms: _347  and  _348
REMARK  127  A    between atoms: _347  and  _350
REMARK  128  A    between atoms: _350  and  _351
REMARK  129  A    between atoms: _354  and  _356
REMARK  130  A    between atoms: _356  and  _357
REMARK  131  A    between atoms: _356  and  _359
REMARK  132  A    between atoms: _359  and  _360
REMARK  133  A    between atoms: _364  and  _365
REMARK  134  A    between atoms: _371  and  _372
REMARK  135  A    between atoms: _377  and  _379
REMARK  136  A    between atoms: _379  and  _380
REMARK  137  A    between atoms: _379  and  _382
REMARK  138  A    between atoms: _382  and  _383
REMARK  139  A    between atoms: _386  and  _388
REMARK  140  A    between atoms: _388  and  _389
REMARK  141  A    between atoms: _388  and  _391
REMARK  142  A    between atoms: _391  and  _392
REMARK  143  A    between atoms: _395  and  _397
REMARK  144  A    between atoms: _397  and  _398
REMARK  145  A    between atoms: _397  and  _400
REMARK  146  A    between atoms: _402  and  _404
REMARK  147  A    between atoms: _404  and  _405
REMARK  148  A    between atoms: _404  and  _407
REMARK  149  A    between atoms: _410  and  _412
REMARK  150  A    between atoms: _412  and  _413
REMARK  151  A    between atoms: _412  and  _415
REMARK  152  A    between atoms: _415  and  _416
REMARK  153  A    between atoms: _426  and  _428
REMARK  154  A    between atoms: _428  and  _429
REMARK  155  A    between atoms: _428  and  _431
REMARK  156  A    between atoms: _431  and  _432
REMARK  157  A    between atoms: _437  and  _439
REMARK  158  A    between atoms: _439  and  _440
REMARK  159  A    between atoms: _439  and  _442
REMARK  160  A    between atoms: _442  and  _443
REMARK  161  A    between atoms: _443  and  _444
REMARK  162  A    between atoms: _444  and  _445
REMARK                            x       y       z     vdW  Elec       q    Type
REMARK                         _______ _______ _______ _____ _____    ______ ____
ROOT
ATOM      1  O   HOH     1      14.322   7.670  10.339  0.00  0.00    +0.000 OA
ENDROOT
TORSDOF 0
REMARK  Name = ../refined-set-2016/3ryx/3ryx_pocket.pdb
REMARK  162 active torsions:
REMARK  status: ('A' for Active; 'I' for Inactive)
REMARK    1  A    between atoms: _1  and  _3
REMARK    2  A    between atoms: _3  and  _4
REMARK    3  A    between atoms: _3  and  _6
REMARK    4  A    between atoms: _6  and  _7
REMARK    5  A    between atoms: _17  and  _19
REMARK    6  A    between atoms: _19  and  _20
REMARK    7  A    between atoms: _19  and  _22
REMARK    8  A    between atoms: _22  and  _23
REMARK    9  A    between atoms: _28  and  _29
REMARK   10  A    between atoms: _31  and  _33
REMARK   11  A    between atoms: _33  and  _34
REMARK   12  A    between atoms: _33  and  _36
REMARK   13  A    between atoms: _36  and  _37
REMARK   14  A    between atoms: _43  and  _45
REMARK   15  A    between atoms: _45  and  _46
REMARK   16  A    between atoms: _45  and  _48
REMARK   17  A    between atoms: _48  and  _49
REMARK   18  A    between atoms: _52  and  _53
REMARK   19  A    between atoms: _58  and  _60
REMARK   20  A    between atoms: _60  and  _61
REMARK   21  A    between atoms: _60  and  _63
REMARK   22  A    between atoms: _63  and  _64
REMARK   23  A    between atoms: _69  and  _71
REMARK   24  A    between atoms: _71  and  _72
REMARK   25  A    between atoms: _71  and  _74
REMARK   26  A    between atoms: _74  and  _75
REMARK   27  A    between atoms: _80  and  _82
REMARK   28  A    between atoms: _82  and  _83
REMARK   29  A    between atoms: _86  and  _88
REMARK   30  A    between atoms: _88  and  _89
REMARK   31  A    between atoms: _88  and  _91
REMARK   32  A    between atoms: _91  and  _92
REMARK   33  A    between atoms: _97  and  _99
REMARK   34  A    between atoms: _99  and  _100
REMARK   35  A    between atoms: _99  and  _102
REMARK   36  A    between atoms: _102  and  _103
REMARK   37  A    between atoms: _106  and  _108
REMARK   38  A    between atoms: _108  and  _109
REMARK   39  A    between atoms: _108  and  _111
REMARK   40  A    between atoms: _111  and  _112
REMARK   41  A    between atoms: _112  and  _113
REMARK   42  A    between atoms: _118  and  _120
REMARK   43  A    between atoms: _120  and  _121
REMARK   44  A    between atoms: _120  and  _123
REMARK   45  A    between atoms: _123  and  _124
REMARK   46  A    between atoms: _130  and  _132
REMARK   47  A    between atoms: _143  and  _146
REMARK   48  A    between atoms: _146  and  _147
REMARK   49  A    between atoms: _155  and  _156
REMARK   50  A    between atoms: _164  and  _166
REMARK   51  A    between atoms: _166  and  _167
REMARK   52  A    between atoms: _166  and  _169
REMARK   53  A    between atoms: _169  and  _170
REMARK   54  A    between atoms: _170  and  _171
REMARK   55  A    between atoms: _174  and  _176
REMARK   56  A    between atoms: _176  and  _177
REMARK   57  A    between atoms: _176  and  _179
REMARK   58  A    between atoms: _179  and  _180
REMARK   59  A    between atoms: _185  and  _187
REMARK   60  A    between atoms: _187  and  _188
REMARK   61  A    between atoms: _187  and  _190
REMARK   62  A    between atoms: _190  and  _191
REMARK   63  A    between atoms: _191  and  _192
REMARK   64  A    between atoms: _195  and  _197
REMARK   65  A    between atoms: _197  and  _198
REMARK   66  A    between atoms: _197  and  _200
REMARK   67  A    between atoms: _200  and  _201
REMARK   68  A    between atoms: _204  and  _206
REMARK   69  A    between atoms: _206  and  _207
REMARK   70  A    between atoms: _206  and  _209
REMARK   71  A    between atoms: _209  and  _210
REMARK   72  A    between atoms: _211  and  ZN_454
REMARK   73  A    between atoms: _215  and  _217
REMARK   74  A    between atoms: _217  and  _218
REMARK   75  A    between atoms: _217  and  _220
REMARK   76  A    between atoms: _220  and  _221
REMARK   77  A    between atoms: _224  and  _226
REMARK   78  A    between atoms: _226  and  _227
REMARK   79  A    between atoms: _226  and  _229
REMARK   80  A    between atoms: _232  and  _234
REMARK   81  A    between atoms: _234  and  _235
REMARK   82  A    between atoms: _234  and  _237
REMARK   83  A    between atoms: _237  and  _238
REMARK   84  A    between atoms: _243  and  _245
REMARK   85  A    between atoms: _245  and  _246
REMARK   86  A    between atoms: _245  and  _248
REMARK   87  A    between atoms: _248  and  _249
REMARK   88  A    between atoms: _255  and  _257
REMARK   89  A    between atoms: _257  and  _258
REMARK   90  A    between atoms: _260  and  _262
REMARK   91  A    between atoms: _262  and  _263
REMARK   92  A    between atoms: _266  and  _268
REMARK   93  A    between atoms: _268  and  _269
REMARK   94  A    between atoms: _268  and  _271
REMARK   95  A    between atoms: _274  and  _276
REMARK   96  A    between atoms: _276  and  _277
REMARK   97  A    between atoms: _276  and  _279
REMARK   98  A    between atoms: _279  and  _280
REMARK   99  A    between atoms: _280  and  _281
REMARK  100  A    between atoms: _286  and  _288
REMARK  101  A    between atoms: _288  and  _289
REMARK  102  A    between atoms: _288  and  _291
REMARK  103  A    between atoms: _291  and  _292
REMARK  104  A    between atoms: _295  and  _297
REMARK  105  A    between atoms: _297  and  _298
REMARK  106  A    between atoms: _301  and  _303
REMARK  107  A    between atoms: _303  and  _304
REMARK  108  A    between atoms: _303  and  _306
REMARK  109  A    between atoms: _309  and  _311
REMARK  110  A    between atoms: _311  and  _312
REMARK  111  A    between atoms: _311  and  _314
REMARK  112  A    between atoms: _314  and  _315
REMARK  113  A    between atoms: _318  and  _320
REMARK  114  A    between atoms: _320  and  _321
REMARK  115  A    between atoms: _323  and  _325
REMARK  116  A    between atoms: _325  and  _326
REMARK  117  A    between atoms: _328  and  _330
REMARK  118  A    between atoms: _330  and  _331
REMARK  119  A    between atoms: _330  and  _333
REMARK  120  A    between atoms: _333  and  _334
REMARK  121  A    between atoms: _336  and  _338
REMARK  122  A    between atoms: _338  and  _339
REMARK  123  A    between atoms: _338  and  _341
REMARK  124  A    between atoms: _341  and  _342
REMARK  125  A    between atoms: _345  and  _347
REMARK  126  A    between atoms: _347  and  _348
REMARK  127  A    between atoms: _347  and  _350
REMARK  128  A    between atoms: _350  and  _351
REMARK  129  A    between atoms: _354  and  _356
REMARK  130  A    between atoms: _356  and  _357
REMARK  131  A    between atoms: _356  and  _359
REMARK  132  A    between atoms: _359  and  _360
REMARK  133  A    between atoms: _364  and  _365
REMARK  134  A    between atoms: _371  and  _372
REMARK  135  A    between atoms: _377  and  _379
REMARK  136  A    between atoms: _379  and  _380
REMARK  137  A    between atoms: _379  and  _382
REMARK  138  A    between atoms: _382  and  _383
REMARK  139  A    between atoms: _386  and  _388
REMARK  140  A    between atoms: _388  and  _389
REMARK  141  A    between atoms: _388  and  _391
REMARK  142  A    between atoms: _391  and  _392
REMARK  143  A    between atoms: _395  and  _397
REMARK  144  A    between atoms: _397  and  _398
REMARK  145  A    between atoms: _397  and  _400
REMARK  146  A    between atoms: _402  and  _404
REMARK  147  A    between atoms: _404  and  _405
REMARK  148  A    between atoms: _404  and  _407
REMARK  149  A    between atoms: _410  and  _412
REMARK  150  A    between atoms: _412  and  _413
REMARK  151  A    between atoms: _412  and  _415
REMARK  152  A    between atoms: _415  and  _416
REMARK  153  A    between atoms: _426  and  _428
REMARK  154  A    between atoms: _428  and  _429
REMARK  155  A    between atoms: _428  and  _431
REMARK  156  A    between atoms: _431  and  _432
REMARK  157  A    between atoms: _437  and  _439
REMARK  158  A    between atoms: _439  and  _440
REMARK  159  A    between atoms: _439  and  _442
REMARK  160  A    between atoms: _442  and  _443
REMARK  161  A    between atoms: _443  and  _444
REMARK  162  A    between atoms: _444  and  _445
REMARK                            x       y       z     vdW  Elec       q    Type
REMARK                         _______ _______ _______ _____ _____    ______ ____
ROOT
ATOM      1  O   HOH     1      16.035  15.039  12.175  0.00  0.00    +0.000 OA
ENDROOT
TORSDOF 0
