REMARK  Name = ../refined-set-2016/4hla/4hla_pocket.pdb
REMARK  221 active torsions:
REMARK  status: ('A' for Active; 'I' for Inactive)
REMARK    1  A    between atoms: _1  and  _3
REMARK    2  A    between atoms: _3  and  _4
REMARK    3  A    between atoms: _3  and  _6
REMARK    4  A    between atoms: _6  and  _7
REMARK    5  A    between atoms: _7  and  _8
REMARK    6  A    between atoms: _8  and  _9
REMARK    7  A    between atoms: _18  and  _20
REMARK    8  A    between atoms: _20  and  _21
REMARK    9  A    between atoms: _20  and  _23
REMARK   10  A    between atoms: _23  and  _24
REMARK   11  A    between atoms: _27  and  _29
REMARK   12  A    between atoms: _29  and  _30
REMARK   13  A    between atoms: _29  and  _32
REMARK   14  A    between atoms: _32  and  _33
REMARK   15  A    between atoms: _36  and  _38
REMARK   16  A    between atoms: _38  and  _39
REMARK   17  A    between atoms: _38  and  _41
REMARK   18  A    between atoms: _41  and  _42
REMARK   19  A    between atoms: _45  and  _47
REMARK   20  A    between atoms: _47  and  _48
REMARK   21  A    between atoms: _47  and  _50
REMARK   22  A    between atoms: _50  and  _51
REMARK   23  A    between atoms: _54  and  _56
REMARK   24  A    between atoms: _56  and  _57
REMARK   25  A    between atoms: _59  and  _61
REMARK   26  A    between atoms: _61  and  _62
REMARK   27  A    between atoms: _65  and  _67
REMARK   28  A    between atoms: _67  and  _68
REMARK   29  A    between atoms: _67  and  _70
REMARK   30  A    between atoms: _70  and  _71
REMARK   31  A    between atoms: _74  and  _76
REMARK   32  A    between atoms: _76  and  _77
REMARK   33  A    between atoms: _76  and  _79
REMARK   34  A    between atoms: _79  and  _80
REMARK   35  A    between atoms: _83  and  _85
REMARK   36  A    between atoms: _85  and  _86
REMARK   37  A    between atoms: _85  and  _88
REMARK   38  A    between atoms: _88  and  _89
REMARK   39  A    between atoms: _92  and  _94
REMARK   40  A    between atoms: _94  and  _95
REMARK   41  A    between atoms: _94  and  _97
REMARK   42  A    between atoms: _100  and  _102
REMARK   43  A    between atoms: _102  and  _103
REMARK   44  A    between atoms: _102  and  _105
REMARK   45  A    between atoms: _105  and  _106
REMARK   46  A    between atoms: _106  and  _107
REMARK   47  A    between atoms: _107  and  _108
REMARK   48  A    between atoms: _108  and  _109
REMARK   49  A    between atoms: _113  and  _115
REMARK   50  A    between atoms: _115  and  _116
REMARK   51  A    between atoms: _115  and  _118
REMARK   52  A    between atoms: _118  and  _119
REMARK   53  A    between atoms: _119  and  _120
REMARK   54  A    between atoms: _122  and  _124
REMARK   55  A    between atoms: _124  and  _125
REMARK   56  A    between atoms: _124  and  _127
REMARK   57  A    between atoms: _127  and  _128
REMARK   58  A    between atoms: _131  and  _133
REMARK   59  A    between atoms: _133  and  _134
REMARK   60  A    between atoms: _136  and  _138
REMARK   61  A    between atoms: _138  and  _139
REMARK   62  A    between atoms: _141  and  _143
REMARK   63  A    between atoms: _143  and  _144
REMARK   64  A    between atoms: _143  and  _146
REMARK   65  A    between atoms: _146  and  _147
REMARK   66  A    between atoms: _150  and  _152
REMARK   67  A    between atoms: _152  and  _153
REMARK   68  A    between atoms: _155  and  _157
REMARK   69  A    between atoms: _157  and  _158
REMARK   70  A    between atoms: _160  and  _162
REMARK   71  A    between atoms: _162  and  _163
REMARK   72  A    between atoms: _162  and  _165
REMARK   73  A    between atoms: _165  and  _166
REMARK   74  A    between atoms: _169  and  _171
REMARK   75  A    between atoms: _171  and  _172
REMARK   76  A    between atoms: _171  and  _174
REMARK   77  A    between atoms: _174  and  _175
REMARK   78  A    between atoms: _178  and  _180
REMARK   79  A    between atoms: _180  and  _181
REMARK   80  A    between atoms: _180  and  _183
REMARK   81  A    between atoms: _183  and  _184
REMARK   82  A    between atoms: _188  and  _189
REMARK   83  A    between atoms: _194  and  _196
REMARK   84  A    between atoms: _196  and  _197
REMARK   85  A    between atoms: _196  and  _199
REMARK   86  A    between atoms: _202  and  _204
REMARK   87  A    between atoms: _204  and  _205
REMARK   88  A    between atoms: _204  and  _207
REMARK   89  A    between atoms: _207  and  _208
REMARK   90  A    between atoms: _213  and  _215
REMARK   91  A    between atoms: _215  and  _216
REMARK   92  A    between atoms: _215  and  _218
REMARK   93  A    between atoms: _218  and  _219
REMARK   94  A    between atoms: _222  and  _224
REMARK   95  A    between atoms: _224  and  _225
REMARK   96  A    between atoms: _224  and  _227
REMARK   97  A    between atoms: _227  and  _228
REMARK   98  A    between atoms: _231  and  _233
REMARK   99  A    between atoms: _233  and  _234
REMARK  100  A    between atoms: _236  and  _238
REMARK  101  A    between atoms: _238  and  _239
REMARK  102  A    between atoms: _238  and  _241
REMARK  103  A    between atoms: _241  and  _242
REMARK  104  A    between atoms: _242  and  _243
REMARK  105  A    between atoms: _243  and  _244
REMARK  106  A    between atoms: _253  and  _255
REMARK  107  A    between atoms: _255  and  _256
REMARK  108  A    between atoms: _255  and  _258
REMARK  109  A    between atoms: _258  and  _259
REMARK  110  A    between atoms: _264  and  _266
REMARK  111  A    between atoms: _266  and  _267
REMARK  112  A    between atoms: _266  and  _269
REMARK  113  A    between atoms: _269  and  _270
REMARK  114  A    between atoms: _270  and  _271
REMARK  115  A    between atoms: _271  and  _272
REMARK  116  A    between atoms: _281  and  _283
REMARK  117  A    between atoms: _283  and  _284
REMARK  118  A    between atoms: _283  and  _286
REMARK  119  A    between atoms: _286  and  _287
REMARK  120  A    between atoms: _290  and  _292
REMARK  121  A    between atoms: _292  and  _293
REMARK  122  A    between atoms: _292  and  _295
REMARK  123  A    between atoms: _295  and  _296
REMARK  124  A    between atoms: _299  and  _301
REMARK  125  A    between atoms: _301  and  _302
REMARK  126  A    between atoms: _301  and  _304
REMARK  127  A    between atoms: _304  and  _305
REMARK  128  A    between atoms: _308  and  _310
REMARK  129  A    between atoms: _310  and  _311
REMARK  130  A    between atoms: _310  and  _313
REMARK  131  A    between atoms: _313  and  _314
REMARK  132  A    between atoms: _317  and  _319
REMARK  133  A    between atoms: _319  and  _320
REMARK  134  A    between atoms: _322  and  _324
REMARK  135  A    between atoms: _324  and  _325
REMARK  136  A    between atoms: _328  and  _330
REMARK  137  A    between atoms: _330  and  _331
REMARK  138  A    between atoms: _330  and  _333
REMARK  139  A    between atoms: _333  and  _334
REMARK  140  A    between atoms: _337  and  _339
REMARK  141  A    between atoms: _339  and  _340
REMARK  142  A    between atoms: _339  and  _342
REMARK  143  A    between atoms: _342  and  _343
REMARK  144  A    between atoms: _346  and  _348
REMARK  145  A    between atoms: _348  and  _349
REMARK  146  A    between atoms: _348  and  _351
REMARK  147  A    between atoms: _351  and  _352
REMARK  148  A    between atoms: _355  and  _357
REMARK  149  A    between atoms: _357  and  _358
REMARK  150  A    between atoms: _357  and  _360
REMARK  151  A    between atoms: _363  and  _365
REMARK  152  A    between atoms: _365  and  _366
REMARK  153  A    between atoms: _365  and  _368
REMARK  154  A    between atoms: _368  and  _369
REMARK  155  A    between atoms: _369  and  _370
REMARK  156  A    between atoms: _370  and  _371
REMARK  157  A    between atoms: _371  and  _372
REMARK  158  A    between atoms: _376  and  _378
REMARK  159  A    between atoms: _378  and  _379
REMARK  160  A    between atoms: _378  and  _381
REMARK  161  A    between atoms: _381  and  _382
REMARK  162  A    between atoms: _382  and  _383
REMARK  163  A    between atoms: _385  and  _387
REMARK  164  A    between atoms: _387  and  _388
REMARK  165  A    between atoms: _387  and  _390
REMARK  166  A    between atoms: _390  and  _391
REMARK  167  A    between atoms: _394  and  _396
REMARK  168  A    between atoms: _396  and  _397
REMARK  169  A    between atoms: _399  and  _401
REMARK  170  A    between atoms: _401  and  _402
REMARK  171  A    between atoms: _404  and  _406
REMARK  172  A    between atoms: _406  and  _407
REMARK  173  A    between atoms: _406  and  _409
REMARK  174  A    between atoms: _409  and  _410
REMARK  175  A    between atoms: _413  and  _415
REMARK  176  A    between atoms: _415  and  _416
REMARK  177  A    between atoms: _418  and  _420
REMARK  178  A    between atoms: _420  and  _421
REMARK  179  A    between atoms: _423  and  _425
REMARK  180  A    between atoms: _425  and  _426
REMARK  181  A    between atoms: _425  and  _428
REMARK  182  A    between atoms: _428  and  _429
REMARK  183  A    between atoms: _432  and  _434
REMARK  184  A    between atoms: _434  and  _435
REMARK  185  A    between atoms: _434  and  _437
REMARK  186  A    between atoms: _440  and  _442
REMARK  187  A    between atoms: _442  and  _443
REMARK  188  A    between atoms: _442  and  _445
REMARK  189  A    between atoms: _445  and  _446
REMARK  190  A    between atoms: _449  and  _451
REMARK  191  A    between atoms: _451  and  _452
REMARK  192  A    between atoms: _451  and  _454
REMARK  193  A    between atoms: _454  and  _455
REMARK  194  A    between atoms: _459  and  _460
REMARK  195  A    between atoms: _465  and  _467
REMARK  196  A    between atoms: _467  and  _468
REMARK  197  A    between atoms: _467  and  _470
REMARK  198  A    between atoms: _473  and  _475
REMARK  199  A    between atoms: _475  and  _476
REMARK  200  A    between atoms: _475  and  _478
REMARK  201  A    between atoms: _478  and  _479
REMARK  202  A    between atoms: _484  and  _486
REMARK  203  A    between atoms: _486  and  _487
REMARK  204  A    between atoms: _486  and  _489
REMARK  205  A    between atoms: _489  and  _490
REMARK  206  A    between atoms: _493  and  _495
REMARK  207  A    between atoms: _495  and  _496
REMARK  208  A    between atoms: _495  and  _498
REMARK  209  A    between atoms: _498  and  _499
REMARK  210  A    between atoms: _502  and  _504
REMARK  211  A    between atoms: _504  and  _505
REMARK  212  A    between atoms: _507  and  _509
REMARK  213  A    between atoms: _509  and  _510
REMARK  214  A    between atoms: _509  and  _512
REMARK  215  A    between atoms: _512  and  _513
REMARK  216  A    between atoms: _513  and  _514
REMARK  217  A    between atoms: _514  and  _515
REMARK  218  A    between atoms: _524  and  _526
REMARK  219  A    between atoms: _526  and  _527
REMARK  220  A    between atoms: _526  and  _529
REMARK  221  A    between atoms: _529  and  _530
REMARK                            x       y       z     vdW  Elec       q    Type
REMARK                         _______ _______ _______ _____ _____    ______ ____
ROOT
ATOM      1  NE  ARG A   1      18.575 -14.619   6.208  0.00  0.00    -0.265 N 
ATOM      2  HE  ARG A   1      18.707 -14.622   7.240  0.00  0.00    +0.259 HD
ATOM      3  CZ  ARG A   1      17.571 -13.887   5.716  0.00  0.00    +0.342 C 
ATOM      4  NH2 ARG A   1      16.794 -13.196   6.556  0.00  0.00    -0.292 N 
ATOM      5 HH21 ARG A   1      16.974 -13.232   7.580  0.00  0.00    +0.255 HD
ATOM      6 HH22 ARG A   1      16.009 -12.622   6.186  0.00  0.00    +0.255 HD
ATOM      7  NH1 ARG A   1      17.333 -13.843   4.395  0.00  0.00    -0.292 N 
ATOM      8 HH11 ARG A   1      16.548 -13.269   4.027  0.00  0.00    +0.255 HD
ATOM      9 HH12 ARG A   1      17.934 -14.383   3.740  0.00  0.00    +0.255 HD
ENDROOT
BRANCH   1  10
ATOM     10  CD  ARG A   1      19.502 -15.416   5.405  0.00  0.00    +0.174 C 
BRANCH  10  11
ATOM     11  CG  ARG A   1      19.586 -16.860   5.892  0.00  0.00    +0.045 C 
BRANCH  11  12
ATOM     12  CB  ARG A   1      20.519 -17.668   5.011  0.00  0.00    +0.029 C 
BRANCH  12  13
ATOM     13  CA  ARG A   1      20.600 -19.156   5.365  0.00  0.00    +0.133 C 
BRANCH  13  14
ATOM     14  N   ARG A   1      21.180 -19.353   6.702  0.00  0.00    -0.239 NA
ATOM     15  H   ARG A   1      21.466 -18.524   7.261  0.00  0.00    +0.142 HD
ENDBRANCH  13  14
BRANCH  13  16
ATOM     16  C   ARG A   1      21.461 -19.842   4.321  0.00  0.00    +0.224 C 
ATOM     17  O   ARG A   1      22.686 -19.685   4.343  0.00  0.00    -0.287 OA
ENDBRANCH  13  16
ENDBRANCH  12  13
ENDBRANCH  11  12
ENDBRANCH  10  11
ENDBRANCH   1  10
TORSDOF 6
REMARK  Name = ../refined-set-2016/4hla/4hla_pocket.pdb
REMARK  221 active torsions:
REMARK  status: ('A' for Active; 'I' for Inactive)
REMARK    1  A    between atoms: _1  and  _3
REMARK    2  A    between atoms: _3  and  _4
REMARK    3  A    between atoms: _3  and  _6
REMARK    4  A    between atoms: _6  and  _7
REMARK    5  A    between atoms: _7  and  _8
REMARK    6  A    between atoms: _8  and  _9
REMARK    7  A    between atoms: _18  and  _20
REMARK    8  A    between atoms: _20  and  _21
REMARK    9  A    between atoms: _20  and  _23
REMARK   10  A    between atoms: _23  and  _24
REMARK   11  A    between atoms: _27  and  _29
REMARK   12  A    between atoms: _29  and  _30
REMARK   13  A    between atoms: _29  and  _32
REMARK   14  A    between atoms: _32  and  _33
REMARK   15  A    between atoms: _36  and  _38
REMARK   16  A    between atoms: _38  and  _39
REMARK   17  A    between atoms: _38  and  _41
REMARK   18  A    between atoms: _41  and  _42
REMARK   19  A    between atoms: _45  and  _47
REMARK   20  A    between atoms: _47  and  _48
REMARK   21  A    between atoms: _47  and  _50
REMARK   22  A    between atoms: _50  and  _51
REMARK   23  A    between atoms: _54  and  _56
REMARK   24  A    between atoms: _56  and  _57
REMARK   25  A    between atoms: _59  and  _61
REMARK   26  A    between atoms: _61  and  _62
REMARK   27  A    between atoms: _65  and  _67
REMARK   28  A    between atoms: _67  and  _68
REMARK   29  A    between atoms: _67  and  _70
REMARK   30  A    between atoms: _70  and  _71
REMARK   31  A    between atoms: _74  and  _76
REMARK   32  A    between atoms: _76  and  _77
REMARK   33  A    between atoms: _76  and  _79
REMARK   34  A    between atoms: _79  and  _80
REMARK   35  A    between atoms: _83  and  _85
REMARK   36  A    between atoms: _85  and  _86
REMARK   37  A    between atoms: _85  and  _88
REMARK   38  A    between atoms: _88  and  _89
REMARK   39  A    between atoms: _92  and  _94
REMARK   40  A    between atoms: _94  and  _95
REMARK   41  A    between atoms: _94  and  _97
REMARK   42  A    between atoms: _100  and  _102
REMARK   43  A    between atoms: _102  and  _103
REMARK   44  A    between atoms: _102  and  _105
REMARK   45  A    between atoms: _105  and  _106
REMARK   46  A    between atoms: _106  and  _107
REMARK   47  A    between atoms: _107  and  _108
REMARK   48  A    between atoms: _108  and  _109
REMARK   49  A    between atoms: _113  and  _115
REMARK   50  A    between atoms: _115  and  _116
REMARK   51  A    between atoms: _115  and  _118
REMARK   52  A    between atoms: _118  and  _119
REMARK   53  A    between atoms: _119  and  _120
REMARK   54  A    between atoms: _122  and  _124
REMARK   55  A    between atoms: _124  and  _125
REMARK   56  A    between atoms: _124  and  _127
REMARK   57  A    between atoms: _127  and  _128
REMARK   58  A    between atoms: _131  and  _133
REMARK   59  A    between atoms: _133  and  _134
REMARK   60  A    between atoms: _136  and  _138
REMARK   61  A    between atoms: _138  and  _139
REMARK   62  A    between atoms: _141  and  _143
REMARK   63  A    between atoms: _143  and  _144
REMARK   64  A    between atoms: _143  and  _146
REMARK   65  A    between atoms: _146  and  _147
REMARK   66  A    between atoms: _150  and  _152
REMARK   67  A    between atoms: _152  and  _153
REMARK   68  A    between atoms: _155  and  _157
REMARK   69  A    between atoms: _157  and  _158
REMARK   70  A    between atoms: _160  and  _162
REMARK   71  A    between atoms: _162  and  _163
REMARK   72  A    between atoms: _162  and  _165
REMARK   73  A    between atoms: _165  and  _166
REMARK   74  A    between atoms: _169  and  _171
REMARK   75  A    between atoms: _171  and  _172
REMARK   76  A    between atoms: _171  and  _174
REMARK   77  A    between atoms: _174  and  _175
REMARK   78  A    between atoms: _178  and  _180
REMARK   79  A    between atoms: _180  and  _181
REMARK   80  A    between atoms: _180  and  _183
REMARK   81  A    between atoms: _183  and  _184
REMARK   82  A    between atoms: _188  and  _189
REMARK   83  A    between atoms: _194  and  _196
REMARK   84  A    between atoms: _196  and  _197
REMARK   85  A    between atoms: _196  and  _199
REMARK   86  A    between atoms: _202  and  _204
REMARK   87  A    between atoms: _204  and  _205
REMARK   88  A    between atoms: _204  and  _207
REMARK   89  A    between atoms: _207  and  _208
REMARK   90  A    between atoms: _213  and  _215
REMARK   91  A    between atoms: _215  and  _216
REMARK   92  A    between atoms: _215  and  _218
REMARK   93  A    between atoms: _218  and  _219
REMARK   94  A    between atoms: _222  and  _224
REMARK   95  A    between atoms: _224  and  _225
REMARK   96  A    between atoms: _224  and  _227
REMARK   97  A    between atoms: _227  and  _228
REMARK   98  A    between atoms: _231  and  _233
REMARK   99  A    between atoms: _233  and  _234
REMARK  100  A    between atoms: _236  and  _238
REMARK  101  A    between atoms: _238  and  _239
REMARK  102  A    between atoms: _238  and  _241
REMARK  103  A    between atoms: _241  and  _242
REMARK  104  A    between atoms: _242  and  _243
REMARK  105  A    between atoms: _243  and  _244
REMARK  106  A    between atoms: _253  and  _255
REMARK  107  A    between atoms: _255  and  _256
REMARK  108  A    between atoms: _255  and  _258
REMARK  109  A    between atoms: _258  and  _259
REMARK  110  A    between atoms: _264  and  _266
REMARK  111  A    between atoms: _266  and  _267
REMARK  112  A    between atoms: _266  and  _269
REMARK  113  A    between atoms: _269  and  _270
REMARK  114  A    between atoms: _270  and  _271
REMARK  115  A    between atoms: _271  and  _272
REMARK  116  A    between atoms: _281  and  _283
REMARK  117  A    between atoms: _283  and  _284
REMARK  118  A    between atoms: _283  and  _286
REMARK  119  A    between atoms: _286  and  _287
REMARK  120  A    between atoms: _290  and  _292
REMARK  121  A    between atoms: _292  and  _293
REMARK  122  A    between atoms: _292  and  _295
REMARK  123  A    between atoms: _295  and  _296
REMARK  124  A    between atoms: _299  and  _301
REMARK  125  A    between atoms: _301  and  _302
REMARK  126  A    between atoms: _301  and  _304
REMARK  127  A    between atoms: _304  and  _305
REMARK  128  A    between atoms: _308  and  _310
REMARK  129  A    between atoms: _310  and  _311
REMARK  130  A    between atoms: _310  and  _313
REMARK  131  A    between atoms: _313  and  _314
REMARK  132  A    between atoms: _317  and  _319
REMARK  133  A    between atoms: _319  and  _320
REMARK  134  A    between atoms: _322  and  _324
REMARK  135  A    between atoms: _324  and  _325
REMARK  136  A    between atoms: _328  and  _330
REMARK  137  A    between atoms: _330  and  _331
REMARK  138  A    between atoms: _330  and  _333
REMARK  139  A    between atoms: _333  and  _334
REMARK  140  A    between atoms: _337  and  _339
REMARK  141  A    between atoms: _339  and  _340
REMARK  142  A    between atoms: _339  and  _342
REMARK  143  A    between atoms: _342  and  _343
REMARK  144  A    between atoms: _346  and  _348
REMARK  145  A    between atoms: _348  and  _349
REMARK  146  A    between atoms: _348  and  _351
REMARK  147  A    between atoms: _351  and  _352
REMARK  148  A    between atoms: _355  and  _357
REMARK  149  A    between atoms: _357  and  _358
REMARK  150  A    between atoms: _357  and  _360
REMARK  151  A    between atoms: _363  and  _365
REMARK  152  A    between atoms: _365  and  _366
REMARK  153  A    between atoms: _365  and  _368
REMARK  154  A    between atoms: _368  and  _369
REMARK  155  A    between atoms: _369  and  _370
REMARK  156  A    between atoms: _370  and  _371
REMARK  157  A    between atoms: _371  and  _372
REMARK  158  A    between atoms: _376  and  _378
REMARK  159  A    between atoms: _378  and  _379
REMARK  160  A    between atoms: _378  and  _381
REMARK  161  A    between atoms: _381  and  _382
REMARK  162  A    between atoms: _382  and  _383
REMARK  163  A    between atoms: _385  and  _387
REMARK  164  A    between atoms: _387  and  _388
REMARK  165  A    between atoms: _387  and  _390
REMARK  166  A    between atoms: _390  and  _391
REMARK  167  A    between atoms: _394  and  _396
REMARK  168  A    between atoms: _396  and  _397
REMARK  169  A    between atoms: _399  and  _401
REMARK  170  A    between atoms: _401  and  _402
REMARK  171  A    between atoms: _404  and  _406
REMARK  172  A    between atoms: _406  and  _407
REMARK  173  A    between atoms: _406  and  _409
REMARK  174  A    between atoms: _409  and  _410
REMARK  175  A    between atoms: _413  and  _415
REMARK  176  A    between atoms: _415  and  _416
REMARK  177  A    between atoms: _418  and  _420
REMARK  178  A    between atoms: _420  and  _421
REMARK  179  A    between atoms: _423  and  _425
REMARK  180  A    between atoms: _425  and  _426
REMARK  181  A    between atoms: _425  and  _428
REMARK  182  A    between atoms: _428  and  _429
REMARK  183  A    between atoms: _432  and  _434
REMARK  184  A    between atoms: _434  and  _435
REMARK  185  A    between atoms: _434  and  _437
REMARK  186  A    between atoms: _440  and  _442
REMARK  187  A    between atoms: _442  and  _443
REMARK  188  A    between atoms: _442  and  _445
REMARK  189  A    between atoms: _445  and  _446
REMARK  190  A    between atoms: _449  and  _451
REMARK  191  A    between atoms: _451  and  _452
REMARK  192  A    between atoms: _451  and  _454
REMARK  193  A    between atoms: _454  and  _455
REMARK  194  A    between atoms: _459  and  _460
REMARK  195  A    between atoms: _465  and  _467
REMARK  196  A    between atoms: _467  and  _468
REMARK  197  A    between atoms: _467  and  _470
REMARK  198  A    between atoms: _473  and  _475
REMARK  199  A    between atoms: _475  and  _476
REMARK  200  A    between atoms: _475  and  _478
REMARK  201  A    between atoms: _478  and  _479
REMARK  202  A    between atoms: _484  and  _486
REMARK  203  A    between atoms: _486  and  _487
REMARK  204  A    between atoms: _486  and  _489
REMARK  205  A    between atoms: _489  and  _490
REMARK  206  A    between atoms: _493  and  _495
REMARK  207  A    between atoms: _495  and  _496
REMARK  208  A    between atoms: _495  and  _498
REMARK  209  A    between atoms: _498  and  _499
REMARK  210  A    between atoms: _502  and  _504
REMARK  211  A    between atoms: _504  and  _505
REMARK  212  A    between atoms: _507  and  _509
REMARK  213  A    between atoms: _509  and  _510
REMARK  214  A    between atoms: _509  and  _512
REMARK  215  A    between atoms: _512  and  _513
REMARK  216  A    between atoms: _513  and  _514
REMARK  217  A    between atoms: _514  and  _515
REMARK  218  A    between atoms: _524  and  _526
REMARK  219  A    between atoms: _526  and  _527
REMARK  220  A    between atoms: _526  and  _529
REMARK  221  A    between atoms: _529  and  _530
REMARK                            x       y       z     vdW  Elec       q    Type
REMARK                         _______ _______ _______ _____ _____    ______ ____
ROOT
ATOM      1  C   GLY A   5       9.331 -21.029  -2.483  0.00  0.00    +0.243 C 
ATOM      2  O   GLY A   5       8.237 -20.487  -2.530  0.00  0.00    -0.273 OA
ATOM      3  N   ALA A   6      10.279 -20.820  -3.392  0.00  0.00    -0.297 N 
ATOM      4  H   ALA A   6      11.171 -21.349  -3.322  0.00  0.00    +0.150 HD
ENDROOT
BRANCH   3   5
ATOM      5  CA  ALA A   6      10.103 -19.870  -4.484  0.00  0.00    +0.149 C 
ATOM      6  CB  ALA A   6      11.321 -18.956  -4.570  0.00  0.00    +0.031 C 
BRANCH   5   7
ATOM      7  C   ALA A   6       9.950 -20.638  -5.783  0.00  0.00    +0.241 C 
ATOM      8  O   ALA A   6      10.828 -21.416  -6.148  0.00  0.00    -0.273 OA
ATOM      9  N   ASP A   7       8.833 -20.437  -6.478  0.00  0.00    -0.297 N 
ATOM     10  H   ASP A   7       8.094 -19.812  -6.097  0.00  0.00    +0.150 HD
BRANCH   9  11
ATOM     11  CA  ASP A   7       8.638 -21.084  -7.766  0.00  0.00    +0.160 C 
BRANCH  11  12
ATOM     12  C   ASP A   7       9.697 -20.603  -8.758  0.00  0.00    +0.241 C 
ATOM     13  N   ASP A   8       9.915 -19.287  -8.779  0.00  0.00    -0.297 N 
ATOM     14  H   ASP A   8       9.462 -18.703  -8.048  0.00  0.00    +0.150 HD
ATOM     15  O   ASP A   7      10.290 -21.410  -9.480  0.00  0.00    -0.273 OA
BRANCH  13  16
ATOM     16  CA  ASP A   8      10.759 -18.617  -9.777  0.00  0.00    +0.160 C 
BRANCH  16  17
ATOM     17  C   ASP A   8      11.956 -17.900  -9.152  0.00  0.00    +0.241 C 
ATOM     18  O   ASP A   8      11.919 -17.476  -8.006  0.00  0.00    -0.273 OA
ATOM     19  N   THR A   9      13.000 -17.733  -9.947  0.00  0.00    -0.295 N 
ATOM     20  H   THR A   9      12.969 -18.131 -10.907  0.00  0.00    +0.150 HD
BRANCH  19  21
ATOM     21  CA  THR A   9      14.191 -17.011  -9.524  0.00  0.00    +0.176 C 
BRANCH  21  22
ATOM     22  C   THR A   9      13.953 -15.508  -9.622  0.00  0.00    +0.243 C 
ATOM     23  N   VAL A  10      14.200 -14.778  -8.544  0.00  0.00    -0.298 N 
ATOM     24  H   VAL A  10      14.502 -15.242  -7.664  0.00  0.00    +0.150 HD
ATOM     25  O   THR A   9      13.522 -15.015 -10.655  0.00  0.00    -0.273 OA
BRANCH  23  26
ATOM     26  CA  VAL A  10      14.050 -13.323  -8.585  0.00  0.00    +0.137 C 
BRANCH  26  27
ATOM     27  CB  VAL A  10      12.734 -12.833  -7.925  0.00  0.00    +0.026 C 
ATOM     28  CG2 VAL A  10      12.630 -13.309  -6.504  0.00  0.00    +0.002 C 
ATOM     29  CG1 VAL A  10      12.631 -11.303  -8.002  0.00  0.00    +0.002 C 
ENDBRANCH  26  27
BRANCH  26  30
ATOM     30  C   VAL A  10      15.253 -12.609  -7.981  0.00  0.00    +0.227 C 
ATOM     31  O   VAL A  10      15.667 -12.901  -6.867  0.00  0.00    -0.286 OA
ENDBRANCH  26  30
ENDBRANCH  23  26
ENDBRANCH  21  22
BRANCH  21  32
ATOM     32  CB  THR A   9      15.385 -17.443 -10.406  0.00  0.00    +0.137 C 
ATOM     33  CG2 THR A   9      16.613 -16.565 -10.167  0.00  0.00    +0.034 C 
BRANCH  32  34
ATOM     34  OG1 THR A   9      15.685 -18.813 -10.122  0.00  0.00    -0.382 OA
ATOM     35  HG1 THR A   9      14.894 -19.372 -10.325  0.00  0.00    +0.210 HD
ENDBRANCH  32  34
ENDBRANCH  21  32
ENDBRANCH  19  21
ENDBRANCH  16  17
BRANCH  16  36
ATOM     36  CB  ASP A   8       9.970 -17.536 -10.527  0.00  0.00    +0.143 C 
BRANCH  36  37
ATOM     37  CG  ASP A   8       8.606 -17.994 -10.949  0.00  0.00    +0.367 C 
ATOM     38  OD2 ASP A   8       7.622 -17.303 -10.593  0.00  0.00    -0.246 OA
ATOM     39  OD1 ASP A   8       8.533 -19.036 -11.637  0.00  0.00    -0.246 OA
ENDBRANCH  36  37
ENDBRANCH  16  36
ENDBRANCH  13  16
ENDBRANCH  11  12
BRANCH  11  40
ATOM     40  CB  ASP A   7       7.262 -20.765  -8.343  0.00  0.00    +0.143 C 
BRANCH  40  41
ATOM     41  CG  ASP A   7       6.131 -21.310  -7.506  0.00  0.00    +0.367 C 
ATOM     42  OD2 ASP A   7       6.363 -22.229  -6.683  0.00  0.00    -0.246 OA
ATOM     43  OD1 ASP A   7       5.005 -20.801  -7.676  0.00  0.00    -0.246 OA
ENDBRANCH  40  41
ENDBRANCH  11  40
ENDBRANCH   9  11
ENDBRANCH   5   7
ENDBRANCH   3   5
BRANCH   1  44
ATOM     44  CA  GLY A   5       9.668 -21.979  -1.355  0.00  0.00    +0.176 C 
BRANCH  44  46
ATOM     45  C   THR A   4      11.229 -23.661  -2.139  0.00  0.00    +0.243 C 
ATOM     46  N   GLY A   5      10.992 -22.556  -1.440  0.00  0.00    -0.295 N 
ATOM     47  H   GLY A   5      11.779 -22.094  -0.941  0.00  0.00    +0.150 HD
ATOM     48  O   THR A   4      10.351 -24.261  -2.766  0.00  0.00    -0.273 OA
BRANCH  45  49
ATOM     49  CA  THR A   4      12.663 -24.167  -2.129  0.00  0.00    +0.176 C 
BRANCH  49  51
ATOM     50  C   ASP A   3      13.850 -22.054  -2.441  0.00  0.00    +0.241 C 
ATOM     51  N   THR A   4      13.636 -23.144  -1.713  0.00  0.00    -0.295 N 
ATOM     52  H   THR A   4      14.168 -23.278  -0.829  0.00  0.00    +0.150 HD
ATOM     53  O   ASP A   3      13.228 -21.817  -3.479  0.00  0.00    -0.273 OA
BRANCH  50  54
ATOM     54  CA  ASP A   3      14.908 -21.071  -1.909  0.00  0.00    +0.160 C 
BRANCH  54  57
ATOM     55  C   LEU A   2      17.276 -21.480  -1.776  0.00  0.00    +0.241 C 
ATOM     56  O   LEU A   2      17.196 -21.717  -0.563  0.00  0.00    -0.273 OA
ATOM     57  N   ASP A   3      16.201 -21.292  -2.533  0.00  0.00    -0.297 N 
ATOM     58  H   ASP A   3      16.285 -21.303  -3.570  0.00  0.00    +0.150 HD
BRANCH  55  59
ATOM     59  CA  LEU A   2      18.635 -21.374  -2.462  0.00  0.00    +0.149 C 
BRANCH  59  61
ATOM     60  C   LEU A   1      18.896 -18.971  -2.233  0.00  0.00    +0.238 C 
ATOM     61  N   LEU A   2      19.287 -20.201  -1.893  0.00  0.00    -0.297 N 
ATOM     62  H   LEU A   2      20.066 -20.324  -1.215  0.00  0.00    +0.150 HD
ATOM     63  O   LEU A   1      18.150 -18.755  -3.189  0.00  0.00    -0.274 OA
BRANCH  60  64
ATOM     64  CA  LEU A   1      19.390 -17.809  -1.394  0.00  0.00    +0.145 C 
BRANCH  64  65
ATOM     65  N   LEU A   1      19.970 -16.791  -2.267  0.00  0.00    -0.238 NA
ATOM     66  H   LEU A   1      19.365 -16.002  -2.573  0.00  0.00    +0.142 HD
ENDBRANCH  64  65
BRANCH  64  67
ATOM     67  CB  LEU A   1      18.171 -17.221  -0.675  0.00  0.00    +0.026 C 
BRANCH  67  68
ATOM     68  CG  LEU A   1      18.099 -16.847   0.800  0.00  0.00    +0.002 C 
ATOM     69  CD2 LEU A   1      18.767 -17.881   1.686  0.00  0.00    +0.000 C 
ATOM     70  CD1 LEU A   1      16.618 -16.649   1.201  0.00  0.00    +0.000 C 
ENDBRANCH  67  68
ENDBRANCH  64  67
ENDBRANCH  60  64
ENDBRANCH  59  61
BRANCH  59  71
ATOM     71  CB  LEU A   2      19.440 -22.626  -2.178  0.00  0.00    +0.029 C 
BRANCH  71  72
ATOM     72  CG  LEU A   2      20.550 -23.111  -3.110  0.00  0.00    +0.002 C 
ATOM     73  CD2 LEU A   2      21.696 -23.672  -2.303  0.00  0.00    +0.000 C 
ATOM     74  CD1 LEU A   2      20.996 -22.074  -4.126  0.00  0.00    +0.000 C 
ENDBRANCH  71  72
ENDBRANCH  59  71
ENDBRANCH  55  59
ENDBRANCH  54  57
BRANCH  54  75
ATOM     75  CB  ASP A   3      14.495 -19.620  -2.156  0.00  0.00    +0.143 C 
BRANCH  75  76
ATOM     76  CG  ASP A   3      13.209 -19.237  -1.459  0.00  0.00    +0.367 C 
ATOM     77  OD2 ASP A   3      12.538 -20.106  -0.875  0.00  0.00    -0.246 OA
ATOM     78  OD1 ASP A   3      12.893 -18.038  -1.456  0.00  0.00    -0.246 OA
ENDBRANCH  75  76
ENDBRANCH  54  75
ENDBRANCH  50  54
ENDBRANCH  49  51
BRANCH  49  79
ATOM     79  CB  THR A   4      12.765 -25.429  -1.247  0.00  0.00    +0.137 C 
ATOM     80  CG2 THR A   4      14.154 -26.039  -1.386  0.00  0.00    +0.034 C 
BRANCH  79  81
ATOM     81  OG1 THR A   4      12.554 -25.085   0.132  0.00  0.00    -0.382 OA
ATOM     82  HG1 THR A   4      11.654 -24.686   0.237  0.00  0.00    +0.210 HD
ENDBRANCH  79  81
ENDBRANCH  49  79
ENDBRANCH  45  49
ENDBRANCH  44  46
ENDBRANCH   1  44
TORSDOF 35
REMARK  Name = ../refined-set-2016/4hla/4hla_pocket.pdb
REMARK  221 active torsions:
REMARK  status: ('A' for Active; 'I' for Inactive)
REMARK    1  A    between atoms: _1  and  _3
REMARK    2  A    between atoms: _3  and  _4
REMARK    3  A    between atoms: _3  and  _6
REMARK    4  A    between atoms: _6  and  _7
REMARK    5  A    between atoms: _7  and  _8
REMARK    6  A    between atoms: _8  and  _9
REMARK    7  A    between atoms: _18  and  _20
REMARK    8  A    between atoms: _20  and  _21
REMARK    9  A    between atoms: _20  and  _23
REMARK   10  A    between atoms: _23  and  _24
REMARK   11  A    between atoms: _27  and  _29
REMARK   12  A    between atoms: _29  and  _30
REMARK   13  A    between atoms: _29  and  _32
REMARK   14  A    between atoms: _32  and  _33
REMARK   15  A    between atoms: _36  and  _38
REMARK   16  A    between atoms: _38  and  _39
REMARK   17  A    between atoms: _38  and  _41
REMARK   18  A    between atoms: _41  and  _42
REMARK   19  A    between atoms: _45  and  _47
REMARK   20  A    between atoms: _47  and  _48
REMARK   21  A    between atoms: _47  and  _50
REMARK   22  A    between atoms: _50  and  _51
REMARK   23  A    between atoms: _54  and  _56
REMARK   24  A    between atoms: _56  and  _57
REMARK   25  A    between atoms: _59  and  _61
REMARK   26  A    between atoms: _61  and  _62
REMARK   27  A    between atoms: _65  and  _67
REMARK   28  A    between atoms: _67  and  _68
REMARK   29  A    between atoms: _67  and  _70
REMARK   30  A    between atoms: _70  and  _71
REMARK   31  A    between atoms: _74  and  _76
REMARK   32  A    between atoms: _76  and  _77
REMARK   33  A    between atoms: _76  and  _79
REMARK   34  A    between atoms: _79  and  _80
REMARK   35  A    between atoms: _83  and  _85
REMARK   36  A    between atoms: _85  and  _86
REMARK   37  A    between atoms: _85  and  _88
REMARK   38  A    between atoms: _88  and  _89
REMARK   39  A    between atoms: _92  and  _94
REMARK   40  A    between atoms: _94  and  _95
REMARK   41  A    between atoms: _94  and  _97
REMARK   42  A    between atoms: _100  and  _102
REMARK   43  A    between atoms: _102  and  _103
REMARK   44  A    between atoms: _102  and  _105
REMARK   45  A    between atoms: _105  and  _106
REMARK   46  A    between atoms: _106  and  _107
REMARK   47  A    between atoms: _107  and  _108
REMARK   48  A    between atoms: _108  and  _109
REMARK   49  A    between atoms: _113  and  _115
REMARK   50  A    between atoms: _115  and  _116
REMARK   51  A    between atoms: _115  and  _118
REMARK   52  A    between atoms: _118  and  _119
REMARK   53  A    between atoms: _119  and  _120
REMARK   54  A    between atoms: _122  and  _124
REMARK   55  A    between atoms: _124  and  _125
REMARK   56  A    between atoms: _124  and  _127
REMARK   57  A    between atoms: _127  and  _128
REMARK   58  A    between atoms: _131  and  _133
REMARK   59  A    between atoms: _133  and  _134
REMARK   60  A    between atoms: _136  and  _138
REMARK   61  A    between atoms: _138  and  _139
REMARK   62  A    between atoms: _141  and  _143
REMARK   63  A    between atoms: _143  and  _144
REMARK   64  A    between atoms: _143  and  _146
REMARK   65  A    between atoms: _146  and  _147
REMARK   66  A    between atoms: _150  and  _152
REMARK   67  A    between atoms: _152  and  _153
REMARK   68  A    between atoms: _155  and  _157
REMARK   69  A    between atoms: _157  and  _158
REMARK   70  A    between atoms: _160  and  _162
REMARK   71  A    between atoms: _162  and  _163
REMARK   72  A    between atoms: _162  and  _165
REMARK   73  A    between atoms: _165  and  _166
REMARK   74  A    between atoms: _169  and  _171
REMARK   75  A    between atoms: _171  and  _172
REMARK   76  A    between atoms: _171  and  _174
REMARK   77  A    between atoms: _174  and  _175
REMARK   78  A    between atoms: _178  and  _180
REMARK   79  A    between atoms: _180  and  _181
REMARK   80  A    between atoms: _180  and  _183
REMARK   81  A    between atoms: _183  and  _184
REMARK   82  A    between atoms: _188  and  _189
REMARK   83  A    between atoms: _194  and  _196
REMARK   84  A    between atoms: _196  and  _197
REMARK   85  A    between atoms: _196  and  _199
REMARK   86  A    between atoms: _202  and  _204
REMARK   87  A    between atoms: _204  and  _205
REMARK   88  A    between atoms: _204  and  _207
REMARK   89  A    between atoms: _207  and  _208
REMARK   90  A    between atoms: _213  and  _215
REMARK   91  A    between atoms: _215  and  _216
REMARK   92  A    between atoms: _215  and  _218
REMARK   93  A    between atoms: _218  and  _219
REMARK   94  A    between atoms: _222  and  _224
REMARK   95  A    between atoms: _224  and  _225
REMARK   96  A    between atoms: _224  and  _227
REMARK   97  A    between atoms: _227  and  _228
REMARK   98  A    between atoms: _231  and  _233
REMARK   99  A    between atoms: _233  and  _234
REMARK  100  A    between atoms: _236  and  _238
REMARK  101  A    between atoms: _238  and  _239
REMARK  102  A    between atoms: _238  and  _241
REMARK  103  A    between atoms: _241  and  _242
REMARK  104  A    between atoms: _242  and  _243
REMARK  105  A    between atoms: _243  and  _244
REMARK  106  A    between atoms: _253  and  _255
REMARK  107  A    between atoms: _255  and  _256
REMARK  108  A    between atoms: _255  and  _258
REMARK  109  A    between atoms: _258  and  _259
REMARK  110  A    between atoms: _264  and  _266
REMARK  111  A    between atoms: _266  and  _267
REMARK  112  A    between atoms: _266  and  _269
REMARK  113  A    between atoms: _269  and  _270
REMARK  114  A    between atoms: _270  and  _271
REMARK  115  A    between atoms: _271  and  _272
REMARK  116  A    between atoms: _281  and  _283
REMARK  117  A    between atoms: _283  and  _284
REMARK  118  A    between atoms: _283  and  _286
REMARK  119  A    between atoms: _286  and  _287
REMARK  120  A    between atoms: _290  and  _292
REMARK  121  A    between atoms: _292  and  _293
REMARK  122  A    between atoms: _292  and  _295
REMARK  123  A    between atoms: _295  and  _296
REMARK  124  A    between atoms: _299  and  _301
REMARK  125  A    between atoms: _301  and  _302
REMARK  126  A    between atoms: _301  and  _304
REMARK  127  A    between atoms: _304  and  _305
REMARK  128  A    between atoms: _308  and  _310
REMARK  129  A    between atoms: _310  and  _311
REMARK  130  A    between atoms: _310  and  _313
REMARK  131  A    between atoms: _313  and  _314
REMARK  132  A    between atoms: _317  and  _319
REMARK  133  A    between atoms: _319  and  _320
REMARK  134  A    between atoms: _322  and  _324
REMARK  135  A    between atoms: _324  and  _325
REMARK  136  A    between atoms: _328  and  _330
REMARK  137  A    between atoms: _330  and  _331
REMARK  138  A    between atoms: _330  and  _333
REMARK  139  A    between atoms: _333  and  _334
REMARK  140  A    between atoms: _337  and  _339
REMARK  141  A    between atoms: _339  and  _340
REMARK  142  A    between atoms: _339  and  _342
REMARK  143  A    between atoms: _342  and  _343
REMARK  144  A    between atoms: _346  and  _348
REMARK  145  A    between atoms: _348  and  _349
REMARK  146  A    between atoms: _348  and  _351
REMARK  147  A    between atoms: _351  and  _352
REMARK  148  A    between atoms: _355  and  _357
REMARK  149  A    between atoms: _357  and  _358
REMARK  150  A    between atoms: _357  and  _360
REMARK  151  A    between atoms: _363  and  _365
REMARK  152  A    between atoms: _365  and  _366
REMARK  153  A    between atoms: _365  and  _368
REMARK  154  A    between atoms: _368  and  _369
REMARK  155  A    between atoms: _369  and  _370
REMARK  156  A    between atoms: _370  and  _371
REMARK  157  A    between atoms: _371  and  _372
REMARK  158  A    between atoms: _376  and  _378
REMARK  159  A    between atoms: _378  and  _379
REMARK  160  A    between atoms: _378  and  _381
REMARK  161  A    between atoms: _381  and  _382
REMARK  162  A    between atoms: _382  and  _383
REMARK  163  A    between atoms: _385  and  _387
REMARK  164  A    between atoms: _387  and  _388
REMARK  165  A    between atoms: _387  and  _390
REMARK  166  A    between atoms: _390  and  _391
REMARK  167  A    between atoms: _394  and  _396
REMARK  168  A    between atoms: _396  and  _397
REMARK  169  A    between atoms: _399  and  _401
REMARK  170  A    between atoms: _401  and  _402
REMARK  171  A    between atoms: _404  and  _406
REMARK  172  A    between atoms: _406  and  _407
REMARK  173  A    between atoms: _406  and  _409
REMARK  174  A    between atoms: _409  and  _410
REMARK  175  A    between atoms: _413  and  _415
REMARK  176  A    between atoms: _415  and  _416
REMARK  177  A    between atoms: _418  and  _420
REMARK  178  A    between atoms: _420  and  _421
REMARK  179  A    between atoms: _423  and  _425
REMARK  180  A    between atoms: _425  and  _426
REMARK  181  A    between atoms: _425  and  _428
REMARK  182  A    between atoms: _428  and  _429
REMARK  183  A    between atoms: _432  and  _434
REMARK  184  A    between atoms: _434  and  _435
REMARK  185  A    between atoms: _434  and  _437
REMARK  186  A    between atoms: _440  and  _442
REMARK  187  A    between atoms: _442  and  _443
REMARK  188  A    between atoms: _442  and  _445
REMARK  189  A    between atoms: _445  and  _446
REMARK  190  A    between atoms: _449  and  _451
REMARK  191  A    between atoms: _451  and  _452
REMARK  192  A    between atoms: _451  and  _454
REMARK  193  A    between atoms: _454  and  _455
REMARK  194  A    between atoms: _459  and  _460
REMARK  195  A    between atoms: _465  and  _467
REMARK  196  A    between atoms: _467  and  _468
REMARK  197  A    between atoms: _467  and  _470
REMARK  198  A    between atoms: _473  and  _475
REMARK  199  A    between atoms: _475  and  _476
REMARK  200  A    between atoms: _475  and  _478
REMARK  201  A    between atoms: _478  and  _479
REMARK  202  A    between atoms: _484  and  _486
REMARK  203  A    between atoms: _486  and  _487
REMARK  204  A    between atoms: _486  and  _489
REMARK  205  A    between atoms: _489  and  _490
REMARK  206  A    between atoms: _493  and  _495
REMARK  207  A    between atoms: _495  and  _496
REMARK  208  A    between atoms: _495  and  _498
REMARK  209  A    between atoms: _498  and  _499
REMARK  210  A    between atoms: _502  and  _504
REMARK  211  A    between atoms: _504  and  _505
REMARK  212  A    between atoms: _507  and  _509
REMARK  213  A    between atoms: _509  and  _510
REMARK  214  A    between atoms: _509  and  _512
REMARK  215  A    between atoms: _512  and  _513
REMARK  216  A    between atoms: _513  and  _514
REMARK  217  A    between atoms: _514  and  _515
REMARK  218  A    between atoms: _524  and  _526
REMARK  219  A    between atoms: _526  and  _527
REMARK  220  A    between atoms: _526  and  _529
REMARK  221  A    between atoms: _529  and  _530
REMARK                            x       y       z     vdW  Elec       q    Type
REMARK                         _______ _______ _______ _____ _____    ______ ____
ROOT
ATOM      1  C   ILE A   3       4.444 -11.565  -7.132  0.00  0.00    +0.241 C 
ATOM      2  N   GLY A   4       3.828 -12.543  -6.484  0.00  0.00    -0.295 N 
ATOM      3  H   GLY A   4       3.714 -13.471  -6.940  0.00  0.00    +0.150 HD
ATOM      4  O   ILE A   3       4.658 -10.464  -6.633  0.00  0.00    -0.273 OA
ENDROOT
BRANCH   1   5
ATOM      5  CA  ILE A   3       4.887 -11.872  -8.545  0.00  0.00    +0.149 C 
BRANCH   5   7
ATOM      6  C   MET A   2       4.035 -10.648 -10.457  0.00  0.00    +0.241 C 
ATOM      7  N   ILE A   3       4.816 -10.686  -9.382  0.00  0.00    -0.297 N 
ATOM      8  H   ILE A   3       5.386  -9.852  -9.135  0.00  0.00    +0.150 HD
ATOM      9  O   MET A   2       3.378 -11.611 -10.847  0.00  0.00    -0.273 OA
BRANCH   6  10
ATOM     10  CA  MET A   2       3.990  -9.336 -11.203  0.00  0.00    +0.149 C 
BRANCH  10  12
ATOM     11  C   LYS A   1       5.120  -8.970 -13.311  0.00  0.00    +0.238 C 
ATOM     12  N   MET A   2       4.146  -9.562 -12.634  0.00  0.00    -0.297 N 
ATOM     13  H   MET A   2       3.486 -10.195 -13.130  0.00  0.00    +0.150 HD
ATOM     14  O   LYS A   1       5.860  -8.137 -12.801  0.00  0.00    -0.274 OA
BRANCH  11  15
ATOM     15  CA  LYS A   1       5.286  -9.354 -14.776  0.00  0.00    +0.145 C 
BRANCH  15  16
ATOM     16  N   LYS A   1       5.929  -8.249 -15.467  0.00  0.00    -0.238 NA
ATOM     17  H   LYS A   1       6.514  -7.587 -14.918  0.00  0.00    +0.142 HD
ENDBRANCH  15  16
BRANCH  15  18
ATOM     18  CB  LYS A   1       6.150 -10.609 -14.894  0.00  0.00    +0.026 C 
BRANCH  18  19
ATOM     19  CG  LYS A   1       5.461 -11.916 -14.533  0.00  0.00    -0.000 C 
BRANCH  19  20
ATOM     20  CD  LYS A   1       6.500 -13.020 -14.377  0.00  0.00    -0.024 C 
BRANCH  20  21
ATOM     21  CE  LYS A   1       5.868 -14.408 -14.270  0.00  0.00    -0.086 C 
BRANCH  21  22
ATOM     22  NZ  LYS A   1       6.900 -15.490 -14.382  0.00  0.00    +0.380 N 
ATOM     23  HZ1 LYS A   1       7.596 -15.384 -13.617  0.00  0.00    -0.089 HD
ATOM     24  HZ2 LYS A   1       6.437 -16.418 -14.305  0.00  0.00    -0.089 HD
ATOM     25  HZ3 LYS A   1       7.380 -15.416 -15.302  0.00  0.00    -0.089 HD
ENDBRANCH  21  22
ENDBRANCH  20  21
ENDBRANCH  19  20
ENDBRANCH  18  19
ENDBRANCH  15  18
ENDBRANCH  11  15
ENDBRANCH  10  12
BRANCH  10  26
ATOM     26  CB  MET A   2       2.684  -8.612 -10.897  0.00  0.00    +0.041 C 
BRANCH  26  27
ATOM     27  CG  MET A   2       2.836  -7.112 -10.777  0.00  0.00    +0.060 C 
BRANCH  27  28
ATOM     28  SD  MET A   2       1.284  -6.264 -11.085  0.00  0.00    -0.139 S 
ATOM     29  CE  MET A   2       1.072  -6.569 -12.838  0.00  0.00    +0.069 C 
ENDBRANCH  27  28
ENDBRANCH  26  27
ENDBRANCH  10  26
ENDBRANCH   6  10
ENDBRANCH   5   7
BRANCH   5  30
ATOM     30  CB  ILE A   3       6.304 -12.496  -8.524  0.00  0.00    +0.027 C 
ATOM     31  CG2 ILE A   3       6.650 -13.068  -9.876  0.00  0.00    +0.002 C 
BRANCH  30  32
ATOM     32  CG1 ILE A   3       7.360 -11.468  -8.125  0.00  0.00    +0.002 C 
ATOM     33  CD1 ILE A   3       8.683 -12.113  -7.779  0.00  0.00    +0.000 C 
ENDBRANCH  30  32
ENDBRANCH   5  30
ENDBRANCH   1   5
BRANCH   2  34
ATOM     34  CA  GLY A   4       3.314 -12.333  -5.151  0.00  0.00    +0.176 C 
BRANCH  34  35
ATOM     35  C   GLY A   4       4.002 -13.150  -4.079  0.00  0.00    +0.243 C 
ATOM     36  N   GLY A   5       4.321 -12.499  -2.971  0.00  0.00    -0.295 N 
ATOM     37  H   GLY A   5       4.193 -11.468  -2.926  0.00  0.00    +0.150 HD
ATOM     38  O   GLY A   4       4.226 -14.344  -4.231  0.00  0.00    -0.273 OA
BRANCH  36  39
ATOM     39  CA  GLY A   5       4.846 -13.205  -1.822  0.00  0.00    +0.176 C 
BRANCH  39  40
ATOM     40  C   GLY A   5       4.139 -12.818  -0.556  0.00  0.00    +0.243 C 
ATOM     41  N   ILE A   6       4.851 -12.902   0.561  0.00  0.00    -0.297 N 
ATOM     42  H   ILE A   6       5.875 -13.074   0.503  0.00  0.00    +0.150 HD
ATOM     43  O   GLY A   5       2.979 -12.412  -0.593  0.00  0.00    -0.273 OA
BRANCH  41  44
ATOM     44  CA  ILE A   6       4.222 -12.758   1.866  0.00  0.00    +0.149 C 
BRANCH  44  45
ATOM     45  C   ILE A   6       3.523 -11.407   2.100  0.00  0.00    +0.241 C 
ATOM     46  O   ILE A   6       2.402 -11.376   2.613  0.00  0.00    -0.273 OA
ATOM     47  N   GLY A   7       4.149 -10.304   1.693  0.00  0.00    -0.295 N 
ATOM     48  H   GLY A   7       5.048 -10.387   1.177  0.00  0.00    +0.150 HD
BRANCH  47  49
ATOM     49  CA  GLY A   7       3.596  -8.985   1.959  0.00  0.00    +0.176 C 
BRANCH  49  50
ATOM     50  C   GLY A   7       2.826  -8.356   0.802  0.00  0.00    +0.243 C 
ATOM     51  O   GLY A   7       2.505  -7.162   0.825  0.00  0.00    -0.273 OA
ATOM     52  N   GLY A   8       2.522  -9.149  -0.215  0.00  0.00    -0.296 N 
ATOM     53  H   GLY A   8       2.775 -10.157  -0.174  0.00  0.00    +0.150 HD
BRANCH  52  54
ATOM     54  CA  GLY A   8       1.841  -8.628  -1.385  0.00  0.00    +0.163 C 
BRANCH  54  55
ATOM     55  C   GLY A   8       2.620  -8.914  -2.655  0.00  0.00    +0.229 C 
ATOM     56  O   GLY A   8       3.291  -9.939  -2.750  0.00  0.00    -0.286 OA
ENDBRANCH  54  55
ENDBRANCH  52  54
ENDBRANCH  49  50
ENDBRANCH  47  49
ENDBRANCH  44  45
BRANCH  44  57
ATOM     57  CB  ILE A   6       5.187 -13.139   3.022  0.00  0.00    +0.027 C 
ATOM     58  CG2 ILE A   6       5.643 -11.923   3.804  0.00  0.00    +0.002 C 
BRANCH  57  59
ATOM     59  CG1 ILE A   6       4.506 -14.133   3.957  0.00  0.00    +0.002 C 
ATOM     60  CD1 ILE A   6       5.448 -14.844   4.878  0.00  0.00    +0.000 C 
ENDBRANCH  57  59
ENDBRANCH  44  57
ENDBRANCH  41  44
ENDBRANCH  39  40
ENDBRANCH  36  39
ENDBRANCH  34  35
ENDBRANCH   2  34
TORSDOF 28
REMARK  Name = ../refined-set-2016/4hla/4hla_pocket.pdb
REMARK  221 active torsions:
REMARK  status: ('A' for Active; 'I' for Inactive)
REMARK    1  A    between atoms: _1  and  _3
REMARK    2  A    between atoms: _3  and  _4
REMARK    3  A    between atoms: _3  and  _6
REMARK    4  A    between atoms: _6  and  _7
REMARK    5  A    between atoms: _7  and  _8
REMARK    6  A    between atoms: _8  and  _9
REMARK    7  A    between atoms: _18  and  _20
REMARK    8  A    between atoms: _20  and  _21
REMARK    9  A    between atoms: _20  and  _23
REMARK   10  A    between atoms: _23  and  _24
REMARK   11  A    between atoms: _27  and  _29
REMARK   12  A    between atoms: _29  and  _30
REMARK   13  A    between atoms: _29  and  _32
REMARK   14  A    between atoms: _32  and  _33
REMARK   15  A    between atoms: _36  and  _38
REMARK   16  A    between atoms: _38  and  _39
REMARK   17  A    between atoms: _38  and  _41
REMARK   18  A    between atoms: _41  and  _42
REMARK   19  A    between atoms: _45  and  _47
REMARK   20  A    between atoms: _47  and  _48
REMARK   21  A    between atoms: _47  and  _50
REMARK   22  A    between atoms: _50  and  _51
REMARK   23  A    between atoms: _54  and  _56
REMARK   24  A    between atoms: _56  and  _57
REMARK   25  A    between atoms: _59  and  _61
REMARK   26  A    between atoms: _61  and  _62
REMARK   27  A    between atoms: _65  and  _67
REMARK   28  A    between atoms: _67  and  _68
REMARK   29  A    between atoms: _67  and  _70
REMARK   30  A    between atoms: _70  and  _71
REMARK   31  A    between atoms: _74  and  _76
REMARK   32  A    between atoms: _76  and  _77
REMARK   33  A    between atoms: _76  and  _79
REMARK   34  A    between atoms: _79  and  _80
REMARK   35  A    between atoms: _83  and  _85
REMARK   36  A    between atoms: _85  and  _86
REMARK   37  A    between atoms: _85  and  _88
REMARK   38  A    between atoms: _88  and  _89
REMARK   39  A    between atoms: _92  and  _94
REMARK   40  A    between atoms: _94  and  _95
REMARK   41  A    between atoms: _94  and  _97
REMARK   42  A    between atoms: _100  and  _102
REMARK   43  A    between atoms: _102  and  _103
REMARK   44  A    between atoms: _102  and  _105
REMARK   45  A    between atoms: _105  and  _106
REMARK   46  A    between atoms: _106  and  _107
REMARK   47  A    between atoms: _107  and  _108
REMARK   48  A    between atoms: _108  and  _109
REMARK   49  A    between atoms: _113  and  _115
REMARK   50  A    between atoms: _115  and  _116
REMARK   51  A    between atoms: _115  and  _118
REMARK   52  A    between atoms: _118  and  _119
REMARK   53  A    between atoms: _119  and  _120
REMARK   54  A    between atoms: _122  and  _124
REMARK   55  A    between atoms: _124  and  _125
REMARK   56  A    between atoms: _124  and  _127
REMARK   57  A    between atoms: _127  and  _128
REMARK   58  A    between atoms: _131  and  _133
REMARK   59  A    between atoms: _133  and  _134
REMARK   60  A    between atoms: _136  and  _138
REMARK   61  A    between atoms: _138  and  _139
REMARK   62  A    between atoms: _141  and  _143
REMARK   63  A    between atoms: _143  and  _144
REMARK   64  A    between atoms: _143  and  _146
REMARK   65  A    between atoms: _146  and  _147
REMARK   66  A    between atoms: _150  and  _152
REMARK   67  A    between atoms: _152  and  _153
REMARK   68  A    between atoms: _155  and  _157
REMARK   69  A    between atoms: _157  and  _158
REMARK   70  A    between atoms: _160  and  _162
REMARK   71  A    between atoms: _162  and  _163
REMARK   72  A    between atoms: _162  and  _165
REMARK   73  A    between atoms: _165  and  _166
REMARK   74  A    between atoms: _169  and  _171
REMARK   75  A    between atoms: _171  and  _172
REMARK   76  A    between atoms: _171  and  _174
REMARK   77  A    between atoms: _174  and  _175
REMARK   78  A    between atoms: _178  and  _180
REMARK   79  A    between atoms: _180  and  _181
REMARK   80  A    between atoms: _180  and  _183
REMARK   81  A    between atoms: _183  and  _184
REMARK   82  A    between atoms: _188  and  _189
REMARK   83  A    between atoms: _194  and  _196
REMARK   84  A    between atoms: _196  and  _197
REMARK   85  A    between atoms: _196  and  _199
REMARK   86  A    between atoms: _202  and  _204
REMARK   87  A    between atoms: _204  and  _205
REMARK   88  A    between atoms: _204  and  _207
REMARK   89  A    between atoms: _207  and  _208
REMARK   90  A    between atoms: _213  and  _215
REMARK   91  A    between atoms: _215  and  _216
REMARK   92  A    between atoms: _215  and  _218
REMARK   93  A    between atoms: _218  and  _219
REMARK   94  A    between atoms: _222  and  _224
REMARK   95  A    between atoms: _224  and  _225
REMARK   96  A    between atoms: _224  and  _227
REMARK   97  A    between atoms: _227  and  _228
REMARK   98  A    between atoms: _231  and  _233
REMARK   99  A    between atoms: _233  and  _234
REMARK  100  A    between atoms: _236  and  _238
REMARK  101  A    between atoms: _238  and  _239
REMARK  102  A    between atoms: _238  and  _241
REMARK  103  A    between atoms: _241  and  _242
REMARK  104  A    between atoms: _242  and  _243
REMARK  105  A    between atoms: _243  and  _244
REMARK  106  A    between atoms: _253  and  _255
REMARK  107  A    between atoms: _255  and  _256
REMARK  108  A    between atoms: _255  and  _258
REMARK  109  A    between atoms: _258  and  _259
REMARK  110  A    between atoms: _264  and  _266
REMARK  111  A    between atoms: _266  and  _267
REMARK  112  A    between atoms: _266  and  _269
REMARK  113  A    between atoms: _269  and  _270
REMARK  114  A    between atoms: _270  and  _271
REMARK  115  A    between atoms: _271  and  _272
REMARK  116  A    between atoms: _281  and  _283
REMARK  117  A    between atoms: _283  and  _284
REMARK  118  A    between atoms: _283  and  _286
REMARK  119  A    between atoms: _286  and  _287
REMARK  120  A    between atoms: _290  and  _292
REMARK  121  A    between atoms: _292  and  _293
REMARK  122  A    between atoms: _292  and  _295
REMARK  123  A    between atoms: _295  and  _296
REMARK  124  A    between atoms: _299  and  _301
REMARK  125  A    between atoms: _301  and  _302
REMARK  126  A    between atoms: _301  and  _304
REMARK  127  A    between atoms: _304  and  _305
REMARK  128  A    between atoms: _308  and  _310
REMARK  129  A    between atoms: _310  and  _311
REMARK  130  A    between atoms: _310  and  _313
REMARK  131  A    between atoms: _313  and  _314
REMARK  132  A    between atoms: _317  and  _319
REMARK  133  A    between atoms: _319  and  _320
REMARK  134  A    between atoms: _322  and  _324
REMARK  135  A    between atoms: _324  and  _325
REMARK  136  A    between atoms: _328  and  _330
REMARK  137  A    between atoms: _330  and  _331
REMARK  138  A    between atoms: _330  and  _333
REMARK  139  A    between atoms: _333  and  _334
REMARK  140  A    between atoms: _337  and  _339
REMARK  141  A    between atoms: _339  and  _340
REMARK  142  A    between atoms: _339  and  _342
REMARK  143  A    between atoms: _342  and  _343
REMARK  144  A    between atoms: _346  and  _348
REMARK  145  A    between atoms: _348  and  _349
REMARK  146  A    between atoms: _348  and  _351
REMARK  147  A    between atoms: _351  and  _352
REMARK  148  A    between atoms: _355  and  _357
REMARK  149  A    between atoms: _357  and  _358
REMARK  150  A    between atoms: _357  and  _360
REMARK  151  A    between atoms: _363  and  _365
REMARK  152  A    between atoms: _365  and  _366
REMARK  153  A    between atoms: _365  and  _368
REMARK  154  A    between atoms: _368  and  _369
REMARK  155  A    between atoms: _369  and  _370
REMARK  156  A    between atoms: _370  and  _371
REMARK  157  A    between atoms: _371  and  _372
REMARK  158  A    between atoms: _376  and  _378
REMARK  159  A    between atoms: _378  and  _379
REMARK  160  A    between atoms: _378  and  _381
REMARK  161  A    between atoms: _381  and  _382
REMARK  162  A    between atoms: _382  and  _383
REMARK  163  A    between atoms: _385  and  _387
REMARK  164  A    between atoms: _387  and  _388
REMARK  165  A    between atoms: _387  and  _390
REMARK  166  A    between atoms: _390  and  _391
REMARK  167  A    between atoms: _394  and  _396
REMARK  168  A    between atoms: _396  and  _397
REMARK  169  A    between atoms: _399  and  _401
REMARK  170  A    between atoms: _401  and  _402
REMARK  171  A    between atoms: _404  and  _406
REMARK  172  A    between atoms: _406  and  _407
REMARK  173  A    between atoms: _406  and  _409
REMARK  174  A    between atoms: _409  and  _410
REMARK  175  A    between atoms: _413  and  _415
REMARK  176  A    between atoms: _415  and  _416
REMARK  177  A    between atoms: _418  and  _420
REMARK  178  A    between atoms: _420  and  _421
REMARK  179  A    between atoms: _423  and  _425
REMARK  180  A    between atoms: _425  and  _426
REMARK  181  A    between atoms: _425  and  _428
REMARK  182  A    between atoms: _428  and  _429
REMARK  183  A    between atoms: _432  and  _434
REMARK  184  A    between atoms: _434  and  _435
REMARK  185  A    between atoms: _434  and  _437
REMARK  186  A    between atoms: _440  and  _442
REMARK  187  A    between atoms: _442  and  _443
REMARK  188  A    between atoms: _442  and  _445
REMARK  189  A    between atoms: _445  and  _446
REMARK  190  A    between atoms: _449  and  _451
REMARK  191  A    between atoms: _451  and  _452
REMARK  192  A    between atoms: _451  and  _454
REMARK  193  A    between atoms: _454  and  _455
REMARK  194  A    between atoms: _459  and  _460
REMARK  195  A    between atoms: _465  and  _467
REMARK  196  A    between atoms: _467  and  _468
REMARK  197  A    between atoms: _467  and  _470
REMARK  198  A    between atoms: _473  and  _475
REMARK  199  A    between atoms: _475  and  _476
REMARK  200  A    between atoms: _475  and  _478
REMARK  201  A    between atoms: _478  and  _479
REMARK  202  A    between atoms: _484  and  _486
REMARK  203  A    between atoms: _486  and  _487
REMARK  204  A    between atoms: _486  and  _489
REMARK  205  A    between atoms: _489  and  _490
REMARK  206  A    between atoms: _493  and  _495
REMARK  207  A    between atoms: _495  and  _496
REMARK  208  A    between atoms: _495  and  _498
REMARK  209  A    between atoms: _498  and  _499
REMARK  210  A    between atoms: _502  and  _504
REMARK  211  A    between atoms: _504  and  _505
REMARK  212  A    between atoms: _507  and  _509
REMARK  213  A    between atoms: _509  and  _510
REMARK  214  A    between atoms: _509  and  _512
REMARK  215  A    between atoms: _512  and  _513
REMARK  216  A    between atoms: _513  and  _514
REMARK  217  A    between atoms: _514  and  _515
REMARK  218  A    between atoms: _524  and  _526
REMARK  219  A    between atoms: _526  and  _527
REMARK  220  A    between atoms: _526  and  _529
REMARK  221  A    between atoms: _529  and  _530
REMARK                            x       y       z     vdW  Elec       q    Type
REMARK                         _______ _______ _______ _____ _____    ______ ____
ROOT
ATOM      1  CA  ILE A   1       5.986  -6.665  -6.819  0.00  0.00    +0.133 C 
ENDROOT
BRANCH   1   2
ATOM      2  N   ILE A   1       5.084  -7.639  -6.209  0.00  0.00    -0.239 NA
ATOM      3  H   ILE A   1       5.136  -8.638  -6.493  0.00  0.00    +0.142 HD
ENDBRANCH   1   2
BRANCH   1   4
ATOM      4  CB  ILE A   1       7.454  -6.758  -6.294  0.00  0.00    +0.023 C 
ATOM      5  CG2 ILE A   1       7.512  -6.377  -4.813  0.00  0.00    +0.002 C 
BRANCH   4   6
ATOM      6  CG1 ILE A   1       8.061  -8.142  -6.587  0.00  0.00    +0.002 C 
ATOM      7  CD1 ILE A   1       9.557  -8.252  -6.310  0.00  0.00    +0.000 C 
ENDBRANCH   4   6
ENDBRANCH   1   4
BRANCH   1   8
ATOM      8  C   ILE A   1       5.972  -6.851  -8.319  0.00  0.00    +0.224 C 
ATOM      9  O   ILE A   1       5.707  -7.945  -8.815  0.00  0.00    -0.287 OA
ENDBRANCH   1   8
TORSDOF 4
REMARK  Name = ../refined-set-2016/4hla/4hla_pocket.pdb
REMARK  221 active torsions:
REMARK  status: ('A' for Active; 'I' for Inactive)
REMARK    1  A    between atoms: _1  and  _3
REMARK    2  A    between atoms: _3  and  _4
REMARK    3  A    between atoms: _3  and  _6
REMARK    4  A    between atoms: _6  and  _7
REMARK    5  A    between atoms: _7  and  _8
REMARK    6  A    between atoms: _8  and  _9
REMARK    7  A    between atoms: _18  and  _20
REMARK    8  A    between atoms: _20  and  _21
REMARK    9  A    between atoms: _20  and  _23
REMARK   10  A    between atoms: _23  and  _24
REMARK   11  A    between atoms: _27  and  _29
REMARK   12  A    between atoms: _29  and  _30
REMARK   13  A    between atoms: _29  and  _32
REMARK   14  A    between atoms: _32  and  _33
REMARK   15  A    between atoms: _36  and  _38
REMARK   16  A    between atoms: _38  and  _39
REMARK   17  A    between atoms: _38  and  _41
REMARK   18  A    between atoms: _41  and  _42
REMARK   19  A    between atoms: _45  and  _47
REMARK   20  A    between atoms: _47  and  _48
REMARK   21  A    between atoms: _47  and  _50
REMARK   22  A    between atoms: _50  and  _51
REMARK   23  A    between atoms: _54  and  _56
REMARK   24  A    between atoms: _56  and  _57
REMARK   25  A    between atoms: _59  and  _61
REMARK   26  A    between atoms: _61  and  _62
REMARK   27  A    between atoms: _65  and  _67
REMARK   28  A    between atoms: _67  and  _68
REMARK   29  A    between atoms: _67  and  _70
REMARK   30  A    between atoms: _70  and  _71
REMARK   31  A    between atoms: _74  and  _76
REMARK   32  A    between atoms: _76  and  _77
REMARK   33  A    between atoms: _76  and  _79
REMARK   34  A    between atoms: _79  and  _80
REMARK   35  A    between atoms: _83  and  _85
REMARK   36  A    between atoms: _85  and  _86
REMARK   37  A    between atoms: _85  and  _88
REMARK   38  A    between atoms: _88  and  _89
REMARK   39  A    between atoms: _92  and  _94
REMARK   40  A    between atoms: _94  and  _95
REMARK   41  A    between atoms: _94  and  _97
REMARK   42  A    between atoms: _100  and  _102
REMARK   43  A    between atoms: _102  and  _103
REMARK   44  A    between atoms: _102  and  _105
REMARK   45  A    between atoms: _105  and  _106
REMARK   46  A    between atoms: _106  and  _107
REMARK   47  A    between atoms: _107  and  _108
REMARK   48  A    between atoms: _108  and  _109
REMARK   49  A    between atoms: _113  and  _115
REMARK   50  A    between atoms: _115  and  _116
REMARK   51  A    between atoms: _115  and  _118
REMARK   52  A    between atoms: _118  and  _119
REMARK   53  A    between atoms: _119  and  _120
REMARK   54  A    between atoms: _122  and  _124
REMARK   55  A    between atoms: _124  and  _125
REMARK   56  A    between atoms: _124  and  _127
REMARK   57  A    between atoms: _127  and  _128
REMARK   58  A    between atoms: _131  and  _133
REMARK   59  A    between atoms: _133  and  _134
REMARK   60  A    between atoms: _136  and  _138
REMARK   61  A    between atoms: _138  and  _139
REMARK   62  A    between atoms: _141  and  _143
REMARK   63  A    between atoms: _143  and  _144
REMARK   64  A    between atoms: _143  and  _146
REMARK   65  A    between atoms: _146  and  _147
REMARK   66  A    between atoms: _150  and  _152
REMARK   67  A    between atoms: _152  and  _153
REMARK   68  A    between atoms: _155  and  _157
REMARK   69  A    between atoms: _157  and  _158
REMARK   70  A    between atoms: _160  and  _162
REMARK   71  A    between atoms: _162  and  _163
REMARK   72  A    between atoms: _162  and  _165
REMARK   73  A    between atoms: _165  and  _166
REMARK   74  A    between atoms: _169  and  _171
REMARK   75  A    between atoms: _171  and  _172
REMARK   76  A    between atoms: _171  and  _174
REMARK   77  A    between atoms: _174  and  _175
REMARK   78  A    between atoms: _178  and  _180
REMARK   79  A    between atoms: _180  and  _181
REMARK   80  A    between atoms: _180  and  _183
REMARK   81  A    between atoms: _183  and  _184
REMARK   82  A    between atoms: _188  and  _189
REMARK   83  A    between atoms: _194  and  _196
REMARK   84  A    between atoms: _196  and  _197
REMARK   85  A    between atoms: _196  and  _199
REMARK   86  A    between atoms: _202  and  _204
REMARK   87  A    between atoms: _204  and  _205
REMARK   88  A    between atoms: _204  and  _207
REMARK   89  A    between atoms: _207  and  _208
REMARK   90  A    between atoms: _213  and  _215
REMARK   91  A    between atoms: _215  and  _216
REMARK   92  A    between atoms: _215  and  _218
REMARK   93  A    between atoms: _218  and  _219
REMARK   94  A    between atoms: _222  and  _224
REMARK   95  A    between atoms: _224  and  _225
REMARK   96  A    between atoms: _224  and  _227
REMARK   97  A    between atoms: _227  and  _228
REMARK   98  A    between atoms: _231  and  _233
REMARK   99  A    between atoms: _233  and  _234
REMARK  100  A    between atoms: _236  and  _238
REMARK  101  A    between atoms: _238  and  _239
REMARK  102  A    between atoms: _238  and  _241
REMARK  103  A    between atoms: _241  and  _242
REMARK  104  A    between atoms: _242  and  _243
REMARK  105  A    between atoms: _243  and  _244
REMARK  106  A    between atoms: _253  and  _255
REMARK  107  A    between atoms: _255  and  _256
REMARK  108  A    between atoms: _255  and  _258
REMARK  109  A    between atoms: _258  and  _259
REMARK  110  A    between atoms: _264  and  _266
REMARK  111  A    between atoms: _266  and  _267
REMARK  112  A    between atoms: _266  and  _269
REMARK  113  A    between atoms: _269  and  _270
REMARK  114  A    between atoms: _270  and  _271
REMARK  115  A    between atoms: _271  and  _272
REMARK  116  A    between atoms: _281  and  _283
REMARK  117  A    between atoms: _283  and  _284
REMARK  118  A    between atoms: _283  and  _286
REMARK  119  A    between atoms: _286  and  _287
REMARK  120  A    between atoms: _290  and  _292
REMARK  121  A    between atoms: _292  and  _293
REMARK  122  A    between atoms: _292  and  _295
REMARK  123  A    between atoms: _295  and  _296
REMARK  124  A    between atoms: _299  and  _301
REMARK  125  A    between atoms: _301  and  _302
REMARK  126  A    between atoms: _301  and  _304
REMARK  127  A    between atoms: _304  and  _305
REMARK  128  A    between atoms: _308  and  _310
REMARK  129  A    between atoms: _310  and  _311
REMARK  130  A    between atoms: _310  and  _313
REMARK  131  A    between atoms: _313  and  _314
REMARK  132  A    between atoms: _317  and  _319
REMARK  133  A    between atoms: _319  and  _320
REMARK  134  A    between atoms: _322  and  _324
REMARK  135  A    between atoms: _324  and  _325
REMARK  136  A    between atoms: _328  and  _330
REMARK  137  A    between atoms: _330  and  _331
REMARK  138  A    between atoms: _330  and  _333
REMARK  139  A    between atoms: _333  and  _334
REMARK  140  A    between atoms: _337  and  _339
REMARK  141  A    between atoms: _339  and  _340
REMARK  142  A    between atoms: _339  and  _342
REMARK  143  A    between atoms: _342  and  _343
REMARK  144  A    between atoms: _346  and  _348
REMARK  145  A    between atoms: _348  and  _349
REMARK  146  A    between atoms: _348  and  _351
REMARK  147  A    between atoms: _351  and  _352
REMARK  148  A    between atoms: _355  and  _357
REMARK  149  A    between atoms: _357  and  _358
REMARK  150  A    between atoms: _357  and  _360
REMARK  151  A    between atoms: _363  and  _365
REMARK  152  A    between atoms: _365  and  _366
REMARK  153  A    between atoms: _365  and  _368
REMARK  154  A    between atoms: _368  and  _369
REMARK  155  A    between atoms: _369  and  _370
REMARK  156  A    between atoms: _370  and  _371
REMARK  157  A    between atoms: _371  and  _372
REMARK  158  A    between atoms: _376  and  _378
REMARK  159  A    between atoms: _378  and  _379
REMARK  160  A    between atoms: _378  and  _381
REMARK  161  A    between atoms: _381  and  _382
REMARK  162  A    between atoms: _382  and  _383
REMARK  163  A    between atoms: _385  and  _387
REMARK  164  A    between atoms: _387  and  _388
REMARK  165  A    between atoms: _387  and  _390
REMARK  166  A    between atoms: _390  and  _391
REMARK  167  A    between atoms: _394  and  _396
REMARK  168  A    between atoms: _396  and  _397
REMARK  169  A    between atoms: _399  and  _401
REMARK  170  A    between atoms: _401  and  _402
REMARK  171  A    between atoms: _404  and  _406
REMARK  172  A    between atoms: _406  and  _407
REMARK  173  A    between atoms: _406  and  _409
REMARK  174  A    between atoms: _409  and  _410
REMARK  175  A    between atoms: _413  and  _415
REMARK  176  A    between atoms: _415  and  _416
REMARK  177  A    between atoms: _418  and  _420
REMARK  178  A    between atoms: _420  and  _421
REMARK  179  A    between atoms: _423  and  _425
REMARK  180  A    between atoms: _425  and  _426
REMARK  181  A    between atoms: _425  and  _428
REMARK  182  A    between atoms: _428  and  _429
REMARK  183  A    between atoms: _432  and  _434
REMARK  184  A    between atoms: _434  and  _435
REMARK  185  A    between atoms: _434  and  _437
REMARK  186  A    between atoms: _440  and  _442
REMARK  187  A    between atoms: _442  and  _443
REMARK  188  A    between atoms: _442  and  _445
REMARK  189  A    between atoms: _445  and  _446
REMARK  190  A    between atoms: _449  and  _451
REMARK  191  A    between atoms: _451  and  _452
REMARK  192  A    between atoms: _451  and  _454
REMARK  193  A    between atoms: _454  and  _455
REMARK  194  A    between atoms: _459  and  _460
REMARK  195  A    between atoms: _465  and  _467
REMARK  196  A    between atoms: _467  and  _468
REMARK  197  A    between atoms: _467  and  _470
REMARK  198  A    between atoms: _473  and  _475
REMARK  199  A    between atoms: _475  and  _476
REMARK  200  A    between atoms: _475  and  _478
REMARK  201  A    between atoms: _478  and  _479
REMARK  202  A    between atoms: _484  and  _486
REMARK  203  A    between atoms: _486  and  _487
REMARK  204  A    between atoms: _486  and  _489
REMARK  205  A    between atoms: _489  and  _490
REMARK  206  A    between atoms: _493  and  _495
REMARK  207  A    between atoms: _495  and  _496
REMARK  208  A    between atoms: _495  and  _498
REMARK  209  A    between atoms: _498  and  _499
REMARK  210  A    between atoms: _502  and  _504
REMARK  211  A    between atoms: _504  and  _505
REMARK  212  A    between atoms: _507  and  _509
REMARK  213  A    between atoms: _509  and  _510
REMARK  214  A    between atoms: _509  and  _512
REMARK  215  A    between atoms: _512  and  _513
REMARK  216  A    between atoms: _513  and  _514
REMARK  217  A    between atoms: _514  and  _515
REMARK  218  A    between atoms: _524  and  _526
REMARK  219  A    between atoms: _526  and  _527
REMARK  220  A    between atoms: _526  and  _529
REMARK  221  A    between atoms: _529  and  _530
REMARK                            x       y       z     vdW  Elec       q    Type
REMARK                         _______ _______ _______ _____ _____    ______ ____
ROOT
ATOM      1  CA  LEU A   1      12.865 -12.061 -12.717  0.00  0.00    +0.133 C 
ENDROOT
BRANCH   1   2
ATOM      2  N   LEU A   1      13.647 -13.261 -12.980  0.00  0.00    -0.239 NA
ATOM      3  H   LEU A   1      13.700 -13.999 -12.249  0.00  0.00    +0.142 HD
ENDBRANCH   1   2
BRANCH   1   4
ATOM      4  C   LEU A   1      13.726 -11.042 -11.993  0.00  0.00    +0.224 C 
ATOM      5  O   LEU A   1      14.428 -11.376 -11.051  0.00  0.00    -0.287 OA
ENDBRANCH   1   4
BRANCH   1   6
ATOM      6  CB  LEU A   1      11.624 -12.399 -11.886  0.00  0.00    +0.025 C 
BRANCH   6   7
ATOM      7  CG  LEU A   1      10.860 -13.621 -12.400  0.00  0.00    +0.002 C 
ATOM      8  CD2 LEU A   1       9.653 -13.934 -11.510  0.00  0.00    +0.000 C 
ATOM      9  CD1 LEU A   1      10.438 -13.430 -13.873  0.00  0.00    +0.000 C 
ENDBRANCH   6   7
ENDBRANCH   1   6
TORSDOF 4
REMARK  Name = ../refined-set-2016/4hla/4hla_pocket.pdb
REMARK  221 active torsions:
REMARK  status: ('A' for Active; 'I' for Inactive)
REMARK    1  A    between atoms: _1  and  _3
REMARK    2  A    between atoms: _3  and  _4
REMARK    3  A    between atoms: _3  and  _6
REMARK    4  A    between atoms: _6  and  _7
REMARK    5  A    between atoms: _7  and  _8
REMARK    6  A    between atoms: _8  and  _9
REMARK    7  A    between atoms: _18  and  _20
REMARK    8  A    between atoms: _20  and  _21
REMARK    9  A    between atoms: _20  and  _23
REMARK   10  A    between atoms: _23  and  _24
REMARK   11  A    between atoms: _27  and  _29
REMARK   12  A    between atoms: _29  and  _30
REMARK   13  A    between atoms: _29  and  _32
REMARK   14  A    between atoms: _32  and  _33
REMARK   15  A    between atoms: _36  and  _38
REMARK   16  A    between atoms: _38  and  _39
REMARK   17  A    between atoms: _38  and  _41
REMARK   18  A    between atoms: _41  and  _42
REMARK   19  A    between atoms: _45  and  _47
REMARK   20  A    between atoms: _47  and  _48
REMARK   21  A    between atoms: _47  and  _50
REMARK   22  A    between atoms: _50  and  _51
REMARK   23  A    between atoms: _54  and  _56
REMARK   24  A    between atoms: _56  and  _57
REMARK   25  A    between atoms: _59  and  _61
REMARK   26  A    between atoms: _61  and  _62
REMARK   27  A    between atoms: _65  and  _67
REMARK   28  A    between atoms: _67  and  _68
REMARK   29  A    between atoms: _67  and  _70
REMARK   30  A    between atoms: _70  and  _71
REMARK   31  A    between atoms: _74  and  _76
REMARK   32  A    between atoms: _76  and  _77
REMARK   33  A    between atoms: _76  and  _79
REMARK   34  A    between atoms: _79  and  _80
REMARK   35  A    between atoms: _83  and  _85
REMARK   36  A    between atoms: _85  and  _86
REMARK   37  A    between atoms: _85  and  _88
REMARK   38  A    between atoms: _88  and  _89
REMARK   39  A    between atoms: _92  and  _94
REMARK   40  A    between atoms: _94  and  _95
REMARK   41  A    between atoms: _94  and  _97
REMARK   42  A    between atoms: _100  and  _102
REMARK   43  A    between atoms: _102  and  _103
REMARK   44  A    between atoms: _102  and  _105
REMARK   45  A    between atoms: _105  and  _106
REMARK   46  A    between atoms: _106  and  _107
REMARK   47  A    between atoms: _107  and  _108
REMARK   48  A    between atoms: _108  and  _109
REMARK   49  A    between atoms: _113  and  _115
REMARK   50  A    between atoms: _115  and  _116
REMARK   51  A    between atoms: _115  and  _118
REMARK   52  A    between atoms: _118  and  _119
REMARK   53  A    between atoms: _119  and  _120
REMARK   54  A    between atoms: _122  and  _124
REMARK   55  A    between atoms: _124  and  _125
REMARK   56  A    between atoms: _124  and  _127
REMARK   57  A    between atoms: _127  and  _128
REMARK   58  A    between atoms: _131  and  _133
REMARK   59  A    between atoms: _133  and  _134
REMARK   60  A    between atoms: _136  and  _138
REMARK   61  A    between atoms: _138  and  _139
REMARK   62  A    between atoms: _141  and  _143
REMARK   63  A    between atoms: _143  and  _144
REMARK   64  A    between atoms: _143  and  _146
REMARK   65  A    between atoms: _146  and  _147
REMARK   66  A    between atoms: _150  and  _152
REMARK   67  A    between atoms: _152  and  _153
REMARK   68  A    between atoms: _155  and  _157
REMARK   69  A    between atoms: _157  and  _158
REMARK   70  A    between atoms: _160  and  _162
REMARK   71  A    between atoms: _162  and  _163
REMARK   72  A    between atoms: _162  and  _165
REMARK   73  A    between atoms: _165  and  _166
REMARK   74  A    between atoms: _169  and  _171
REMARK   75  A    between atoms: _171  and  _172
REMARK   76  A    between atoms: _171  and  _174
REMARK   77  A    between atoms: _174  and  _175
REMARK   78  A    between atoms: _178  and  _180
REMARK   79  A    between atoms: _180  and  _181
REMARK   80  A    between atoms: _180  and  _183
REMARK   81  A    between atoms: _183  and  _184
REMARK   82  A    between atoms: _188  and  _189
REMARK   83  A    between atoms: _194  and  _196
REMARK   84  A    between atoms: _196  and  _197
REMARK   85  A    between atoms: _196  and  _199
REMARK   86  A    between atoms: _202  and  _204
REMARK   87  A    between atoms: _204  and  _205
REMARK   88  A    between atoms: _204  and  _207
REMARK   89  A    between atoms: _207  and  _208
REMARK   90  A    between atoms: _213  and  _215
REMARK   91  A    between atoms: _215  and  _216
REMARK   92  A    between atoms: _215  and  _218
REMARK   93  A    between atoms: _218  and  _219
REMARK   94  A    between atoms: _222  and  _224
REMARK   95  A    between atoms: _224  and  _225
REMARK   96  A    between atoms: _224  and  _227
REMARK   97  A    between atoms: _227  and  _228
REMARK   98  A    between atoms: _231  and  _233
REMARK   99  A    between atoms: _233  and  _234
REMARK  100  A    between atoms: _236  and  _238
REMARK  101  A    between atoms: _238  and  _239
REMARK  102  A    between atoms: _238  and  _241
REMARK  103  A    between atoms: _241  and  _242
REMARK  104  A    between atoms: _242  and  _243
REMARK  105  A    between atoms: _243  and  _244
REMARK  106  A    between atoms: _253  and  _255
REMARK  107  A    between atoms: _255  and  _256
REMARK  108  A    between atoms: _255  and  _258
REMARK  109  A    between atoms: _258  and  _259
REMARK  110  A    between atoms: _264  and  _266
REMARK  111  A    between atoms: _266  and  _267
REMARK  112  A    between atoms: _266  and  _269
REMARK  113  A    between atoms: _269  and  _270
REMARK  114  A    between atoms: _270  and  _271
REMARK  115  A    between atoms: _271  and  _272
REMARK  116  A    between atoms: _281  and  _283
REMARK  117  A    between atoms: _283  and  _284
REMARK  118  A    between atoms: _283  and  _286
REMARK  119  A    between atoms: _286  and  _287
REMARK  120  A    between atoms: _290  and  _292
REMARK  121  A    between atoms: _292  and  _293
REMARK  122  A    between atoms: _292  and  _295
REMARK  123  A    between atoms: _295  and  _296
REMARK  124  A    between atoms: _299  and  _301
REMARK  125  A    between atoms: _301  and  _302
REMARK  126  A    between atoms: _301  and  _304
REMARK  127  A    between atoms: _304  and  _305
REMARK  128  A    between atoms: _308  and  _310
REMARK  129  A    between atoms: _310  and  _311
REMARK  130  A    between atoms: _310  and  _313
REMARK  131  A    between atoms: _313  and  _314
REMARK  132  A    between atoms: _317  and  _319
REMARK  133  A    between atoms: _319  and  _320
REMARK  134  A    between atoms: _322  and  _324
REMARK  135  A    between atoms: _324  and  _325
REMARK  136  A    between atoms: _328  and  _330
REMARK  137  A    between atoms: _330  and  _331
REMARK  138  A    between atoms: _330  and  _333
REMARK  139  A    between atoms: _333  and  _334
REMARK  140  A    between atoms: _337  and  _339
REMARK  141  A    between atoms: _339  and  _340
REMARK  142  A    between atoms: _339  and  _342
REMARK  143  A    between atoms: _342  and  _343
REMARK  144  A    between atoms: _346  and  _348
REMARK  145  A    between atoms: _348  and  _349
REMARK  146  A    between atoms: _348  and  _351
REMARK  147  A    between atoms: _351  and  _352
REMARK  148  A    between atoms: _355  and  _357
REMARK  149  A    between atoms: _357  and  _358
REMARK  150  A    between atoms: _357  and  _360
REMARK  151  A    between atoms: _363  and  _365
REMARK  152  A    between atoms: _365  and  _366
REMARK  153  A    between atoms: _365  and  _368
REMARK  154  A    between atoms: _368  and  _369
REMARK  155  A    between atoms: _369  and  _370
REMARK  156  A    between atoms: _370  and  _371
REMARK  157  A    between atoms: _371  and  _372
REMARK  158  A    between atoms: _376  and  _378
REMARK  159  A    between atoms: _378  and  _379
REMARK  160  A    between atoms: _378  and  _381
REMARK  161  A    between atoms: _381  and  _382
REMARK  162  A    between atoms: _382  and  _383
REMARK  163  A    between atoms: _385  and  _387
REMARK  164  A    between atoms: _387  and  _388
REMARK  165  A    between atoms: _387  and  _390
REMARK  166  A    between atoms: _390  and  _391
REMARK  167  A    between atoms: _394  and  _396
REMARK  168  A    between atoms: _396  and  _397
REMARK  169  A    between atoms: _399  and  _401
REMARK  170  A    between atoms: _401  and  _402
REMARK  171  A    between atoms: _404  and  _406
REMARK  172  A    between atoms: _406  and  _407
REMARK  173  A    between atoms: _406  and  _409
REMARK  174  A    between atoms: _409  and  _410
REMARK  175  A    between atoms: _413  and  _415
REMARK  176  A    between atoms: _415  and  _416
REMARK  177  A    between atoms: _418  and  _420
REMARK  178  A    between atoms: _420  and  _421
REMARK  179  A    between atoms: _423  and  _425
REMARK  180  A    between atoms: _425  and  _426
REMARK  181  A    between atoms: _425  and  _428
REMARK  182  A    between atoms: _428  and  _429
REMARK  183  A    between atoms: _432  and  _434
REMARK  184  A    between atoms: _434  and  _435
REMARK  185  A    between atoms: _434  and  _437
REMARK  186  A    between atoms: _440  and  _442
REMARK  187  A    between atoms: _442  and  _443
REMARK  188  A    between atoms: _442  and  _445
REMARK  189  A    between atoms: _445  and  _446
REMARK  190  A    between atoms: _449  and  _451
REMARK  191  A    between atoms: _451  and  _452
REMARK  192  A    between atoms: _451  and  _454
REMARK  193  A    between atoms: _454  and  _455
REMARK  194  A    between atoms: _459  and  _460
REMARK  195  A    between atoms: _465  and  _467
REMARK  196  A    between atoms: _467  and  _468
REMARK  197  A    between atoms: _467  and  _470
REMARK  198  A    between atoms: _473  and  _475
REMARK  199  A    between atoms: _475  and  _476
REMARK  200  A    between atoms: _475  and  _478
REMARK  201  A    between atoms: _478  and  _479
REMARK  202  A    between atoms: _484  and  _486
REMARK  203  A    between atoms: _486  and  _487
REMARK  204  A    between atoms: _486  and  _489
REMARK  205  A    between atoms: _489  and  _490
REMARK  206  A    between atoms: _493  and  _495
REMARK  207  A    between atoms: _495  and  _496
REMARK  208  A    between atoms: _495  and  _498
REMARK  209  A    between atoms: _498  and  _499
REMARK  210  A    between atoms: _502  and  _504
REMARK  211  A    between atoms: _504  and  _505
REMARK  212  A    between atoms: _507  and  _509
REMARK  213  A    between atoms: _509  and  _510
REMARK  214  A    between atoms: _509  and  _512
REMARK  215  A    between atoms: _512  and  _513
REMARK  216  A    between atoms: _513  and  _514
REMARK  217  A    between atoms: _514  and  _515
REMARK  218  A    between atoms: _524  and  _526
REMARK  219  A    between atoms: _526  and  _527
REMARK  220  A    between atoms: _526  and  _529
REMARK  221  A    between atoms: _529  and  _530
REMARK                            x       y       z     vdW  Elec       q    Type
REMARK                         _______ _______ _______ _____ _____    ______ ____
ROOT
ATOM      1  C   ILE A   5      16.593 -16.700  -5.816  0.00  0.00    +0.241 C 
ATOM      2  N   ILE A   6      17.221 -17.857  -5.620  0.00  0.00    -0.297 N 
ATOM      3  H   ILE A   6      17.735 -18.015  -4.730  0.00  0.00    +0.150 HD
ATOM      4  O   ILE A   5      16.183 -16.358  -6.913  0.00  0.00    -0.273 OA
ENDROOT
BRANCH   2   5
ATOM      5  CA  ILE A   6      17.200 -18.915  -6.639  0.00  0.00    +0.149 C 
BRANCH   5   6
ATOM      6  C   ILE A   6      16.002 -19.825  -6.403  0.00  0.00    +0.241 C 
ATOM      7  O   ILE A   6      15.930 -20.522  -5.377  0.00  0.00    -0.273 OA
ATOM      8  N   GLY A   7      15.060 -19.831  -7.345  0.00  0.00    -0.295 N 
ATOM      9  H   GLY A   7      15.206 -19.286  -8.219  0.00  0.00    +0.150 HD
BRANCH   8  10
ATOM     10  CA  GLY A   7      13.833 -20.586  -7.170  0.00  0.00    +0.176 C 
BRANCH  10  11
ATOM     11  C   GLY A   7      13.856 -21.940  -7.847  0.00  0.00    +0.243 C 
ATOM     12  N   ARG A   8      12.758 -22.670  -7.740  0.00  0.00    -0.297 N 
ATOM     13  H   ARG A   8      11.898 -22.248  -7.335  0.00  0.00    +0.150 HD
ATOM     14  O   GLY A   7      14.829 -22.314  -8.487  0.00  0.00    -0.273 OA
BRANCH  12  15
ATOM     15  CA  ARG A   8      12.739 -24.056  -8.182  0.00  0.00    +0.149 C 
BRANCH  15  16
ATOM     16  C   ARG A   8      12.964 -24.234  -9.689  0.00  0.00    +0.241 C 
ATOM     17  O   ARG A   8      13.447 -25.279 -10.119  0.00  0.00    -0.273 OA
ATOM     18  N   ASN A   9      12.634 -23.223 -10.489  0.00  0.00    -0.298 N 
ATOM     19  H   ASN A   9      12.198 -22.367 -10.090  0.00  0.00    +0.150 HD
BRANCH  18  20
ATOM     20  CA  ASN A   9      12.882 -23.311 -11.929  0.00  0.00    +0.146 C 
BRANCH  20  21
ATOM     21  C   ASN A   9      14.357 -23.545 -12.253  0.00  0.00    +0.227 C 
ATOM     22  O   ASN A   9      14.690 -24.203 -13.245  0.00  0.00    -0.286 OA
ENDBRANCH  20  21
BRANCH  20  23
ATOM     23  CB  ASN A   9      12.374 -22.068 -12.665  0.00  0.00    +0.112 C 
BRANCH  23  24
ATOM     24  CG  ASN A   9      13.233 -20.843 -12.412  0.00  0.00    +0.222 C 
ATOM     25  OD1 ASN A   9      13.553 -20.521 -11.273  0.00  0.00    -0.275 OA
ATOM     26  ND2 ASN A   9      13.613 -20.153 -13.483  0.00  0.00    -0.329 N 
ATOM     27 HD21 ASN A   9      14.204 -19.305 -13.372  0.00  0.00    +0.145 HD
ATOM     28 HD22 ASN A   9      13.319 -20.461 -14.432  0.00  0.00    +0.145 HD
ENDBRANCH  23  24
ENDBRANCH  20  23
ENDBRANCH  18  20
ENDBRANCH  15  16
BRANCH  15  29
ATOM     29  CB  ARG A   8      11.449 -24.748  -7.735  0.00  0.00    +0.033 C 
BRANCH  29  30
ATOM     30  CG  ARG A   8      11.195 -24.752  -6.198  0.00  0.00    +0.045 C 
BRANCH  30  31
ATOM     31  CD  ARG A   8       9.679 -24.987  -5.908  0.00  0.00    +0.174 C 
BRANCH  31  32
ATOM     32  NE  ARG A   8       9.175 -25.855  -6.937  0.00  0.00    -0.265 N 
ATOM     33  HE  ARG A   8       9.671 -26.763  -7.045  0.00  0.00    +0.259 HD
ATOM     34  CZ  ARG A   8       8.158 -25.650  -7.770  0.00  0.00    +0.342 C 
ATOM     35  NH2 ARG A   8       7.346 -24.602  -7.708  0.00  0.00    -0.292 N 
ATOM     36 HH21 ARG A   8       7.486 -23.878  -6.975  0.00  0.00    +0.255 HD
ATOM     37 HH22 ARG A   8       6.569 -24.505  -8.393  0.00  0.00    +0.255 HD
ATOM     38  NH1 ARG A   8       7.952 -26.581  -8.673  0.00  0.00    -0.292 N 
ATOM     39 HH11 ARG A   8       8.568 -27.418  -8.707  0.00  0.00    +0.255 HD
ATOM     40 HH12 ARG A   8       7.173 -26.481  -9.354  0.00  0.00    +0.255 HD
ENDBRANCH  31  32
ENDBRANCH  30  31
ENDBRANCH  29  30
ENDBRANCH  15  29
ENDBRANCH  12  15
ENDBRANCH  10  11
ENDBRANCH   8  10
ENDBRANCH   5   6
BRANCH   5  41
ATOM     41  CB  ILE A   6      18.477 -19.784  -6.620  0.00  0.00    +0.027 C 
ATOM     42  CG2 ILE A   6      18.475 -20.778  -7.812  0.00  0.00    +0.002 C 
BRANCH  41  43
ATOM     43  CG1 ILE A   6      19.741 -18.914  -6.595  0.00  0.00    +0.002 C 
ATOM     44  CD1 ILE A   6      19.853 -17.933  -7.775  0.00  0.00    +0.000 C 
ENDBRANCH  41  43
ENDBRANCH   5  41
ENDBRANCH   2   5
BRANCH   1  45
ATOM     45  CA  ILE A   5      16.396 -15.784  -4.613  0.00  0.00    +0.149 C 
BRANCH  45  48
ATOM     46  C   ASN A   4      17.886 -13.907  -4.041  0.00  0.00    +0.241 C 
ATOM     47  O   ASN A   4      18.431 -14.513  -3.118  0.00  0.00    -0.273 OA
ATOM     48  N   ILE A   5      16.959 -14.451  -4.827  0.00  0.00    -0.297 N 
ATOM     49  H   ILE A   5      16.616 -13.897  -5.638  0.00  0.00    +0.150 HD
BRANCH  46  50
ATOM     50  CA  ASN A   4      18.299 -12.473  -4.381  0.00  0.00    +0.158 C 
BRANCH  50  52
ATOM     51  C   VAL A   3      17.044 -11.317  -2.680  0.00  0.00    +0.241 C 
ATOM     52  N   ASN A   4      18.232 -11.641  -3.175  0.00  0.00    -0.297 N 
ATOM     53  H   ASN A   4      19.103 -11.310  -2.714  0.00  0.00    +0.150 HD
ATOM     54  O   VAL A   3      15.995 -11.590  -3.262  0.00  0.00    -0.273 OA
BRANCH  51  55
ATOM     55  CA  VAL A   3      17.014 -10.586  -1.355  0.00  0.00    +0.149 C 
BRANCH  55  58
ATOM     56  C   PRO A   2      15.932  -8.502  -0.684  0.00  0.00    +0.241 C 
ATOM     57  O   PRO A   2      16.965  -8.085  -0.154  0.00  0.00    -0.273 OA
ATOM     58  N   VAL A   3      15.866  -9.688  -1.294  0.00  0.00    -0.297 N 
ATOM     59  H   VAL A   3      14.972  -9.979  -1.738  0.00  0.00    +0.150 HD
BRANCH  56  62
ATOM     60  C   THR A   1      13.952  -7.752  -2.936  0.00  0.00    +0.244 C 
ATOM     61  N   PRO A   2      13.653  -8.013  -1.656  0.00  0.00    -0.272 N 
ATOM     62  CA  PRO A   2      14.649  -7.643  -0.635  0.00  0.00    +0.152 C 
ATOM     63  CB  PRO A   2      13.903  -7.864   0.692  0.00  0.00    +0.031 C 
ATOM     64  CG  PRO A   2      12.814  -8.826   0.374  0.00  0.00    +0.024 C 
ATOM     65  CD  PRO A   2      12.411  -8.540  -1.064  0.00  0.00    +0.094 C 
ATOM     66  O   THR A   1      14.972  -7.151  -3.247  0.00  0.00    -0.273 OA
BRANCH  60  67
ATOM     67  CA  THR A   1      12.952  -8.197  -4.015  0.00  0.00    +0.172 C 
BRANCH  67  68
ATOM     68  CB  THR A   1      13.362  -9.574  -4.604  0.00  0.00    +0.135 C 
ATOM     69  CG2 THR A   1      14.621  -9.466  -5.475  0.00  0.00    +0.034 C 
BRANCH  68  70
ATOM     70  OG1 THR A   1      13.587 -10.502  -3.533  0.00  0.00    -0.383 OA
ATOM     71  HG1 THR A   1      14.311 -10.162  -2.950  0.00  0.00    +0.210 HD
ENDBRANCH  68  70
ENDBRANCH  67  68
BRANCH  67  72
ATOM     72  N   THR A   1      12.858  -7.182  -5.060  0.00  0.00    -0.236 NA
ATOM     73  H   THR A   1      13.181  -7.412  -6.021  0.00  0.00    +0.142 HD
ENDBRANCH  67  72
ENDBRANCH  60  67
ENDBRANCH  56  62
ENDBRANCH  55  58
BRANCH  55  74
ATOM     74  CB  VAL A   3      17.005 -11.657  -0.214  0.00  0.00    +0.027 C 
ATOM     75  CG2 VAL A   3      17.055 -11.005   1.172  0.00  0.00    +0.002 C 
ATOM     76  CG1 VAL A   3      15.800 -12.524  -0.327  0.00  0.00    +0.002 C 
ENDBRANCH  55  74
ENDBRANCH  51  55
ENDBRANCH  50  52
BRANCH  50  77
ATOM     77  CB  ASN A   4      19.698 -12.498  -4.997  0.00  0.00    +0.114 C 
BRANCH  77  78
ATOM     78  CG  ASN A   4      20.239 -11.117  -5.309  0.00  0.00    +0.222 C 
ATOM     79  ND2 ASN A   4      21.502 -10.899  -4.971  0.00  0.00    -0.329 N 
ATOM     80 HD21 ASN A   4      22.050 -11.645  -4.497  0.00  0.00    +0.145 HD
ATOM     81 HD22 ASN A   4      21.945  -9.982  -5.180  0.00  0.00    +0.145 HD
ATOM     82  OD1 ASN A   4      19.543 -10.266  -5.874  0.00  0.00    -0.275 OA
ENDBRANCH  77  78
ENDBRANCH  50  77
ENDBRANCH  46  50
ENDBRANCH  45  48
BRANCH  45  83
ATOM     83  CB  ILE A   5      14.870 -15.675  -4.458  0.00  0.00    +0.027 C 
ATOM     84  CG2 ILE A   5      14.222 -17.052  -4.514  0.00  0.00    +0.002 C 
BRANCH  83  85
ATOM     85  CG1 ILE A   5      14.499 -14.950  -3.177  0.00  0.00    +0.002 C 
ATOM     86  CD1 ILE A   5      13.066 -14.440  -3.241  0.00  0.00    +0.000 C 
ENDBRANCH  83  85
ENDBRANCH  45  83
ENDBRANCH   1  45
TORSDOF 32
REMARK  Name = ../refined-set-2016/4hla/4hla_pocket.pdb
REMARK  221 active torsions:
REMARK  status: ('A' for Active; 'I' for Inactive)
REMARK    1  A    between atoms: _1  and  _3
REMARK    2  A    between atoms: _3  and  _4
REMARK    3  A    between atoms: _3  and  _6
REMARK    4  A    between atoms: _6  and  _7
REMARK    5  A    between atoms: _7  and  _8
REMARK    6  A    between atoms: _8  and  _9
REMARK    7  A    between atoms: _18  and  _20
REMARK    8  A    between atoms: _20  and  _21
REMARK    9  A    between atoms: _20  and  _23
REMARK   10  A    between atoms: _23  and  _24
REMARK   11  A    between atoms: _27  and  _29
REMARK   12  A    between atoms: _29  and  _30
REMARK   13  A    between atoms: _29  and  _32
REMARK   14  A    between atoms: _32  and  _33
REMARK   15  A    between atoms: _36  and  _38
REMARK   16  A    between atoms: _38  and  _39
REMARK   17  A    between atoms: _38  and  _41
REMARK   18  A    between atoms: _41  and  _42
REMARK   19  A    between atoms: _45  and  _47
REMARK   20  A    between atoms: _47  and  _48
REMARK   21  A    between atoms: _47  and  _50
REMARK   22  A    between atoms: _50  and  _51
REMARK   23  A    between atoms: _54  and  _56
REMARK   24  A    between atoms: _56  and  _57
REMARK   25  A    between atoms: _59  and  _61
REMARK   26  A    between atoms: _61  and  _62
REMARK   27  A    between atoms: _65  and  _67
REMARK   28  A    between atoms: _67  and  _68
REMARK   29  A    between atoms: _67  and  _70
REMARK   30  A    between atoms: _70  and  _71
REMARK   31  A    between atoms: _74  and  _76
REMARK   32  A    between atoms: _76  and  _77
REMARK   33  A    between atoms: _76  and  _79
REMARK   34  A    between atoms: _79  and  _80
REMARK   35  A    between atoms: _83  and  _85
REMARK   36  A    between atoms: _85  and  _86
REMARK   37  A    between atoms: _85  and  _88
REMARK   38  A    between atoms: _88  and  _89
REMARK   39  A    between atoms: _92  and  _94
REMARK   40  A    between atoms: _94  and  _95
REMARK   41  A    between atoms: _94  and  _97
REMARK   42  A    between atoms: _100  and  _102
REMARK   43  A    between atoms: _102  and  _103
REMARK   44  A    between atoms: _102  and  _105
REMARK   45  A    between atoms: _105  and  _106
REMARK   46  A    between atoms: _106  and  _107
REMARK   47  A    between atoms: _107  and  _108
REMARK   48  A    between atoms: _108  and  _109
REMARK   49  A    between atoms: _113  and  _115
REMARK   50  A    between atoms: _115  and  _116
REMARK   51  A    between atoms: _115  and  _118
REMARK   52  A    between atoms: _118  and  _119
REMARK   53  A    between atoms: _119  and  _120
REMARK   54  A    between atoms: _122  and  _124
REMARK   55  A    between atoms: _124  and  _125
REMARK   56  A    between atoms: _124  and  _127
REMARK   57  A    between atoms: _127  and  _128
REMARK   58  A    between atoms: _131  and  _133
REMARK   59  A    between atoms: _133  and  _134
REMARK   60  A    between atoms: _136  and  _138
REMARK   61  A    between atoms: _138  and  _139
REMARK   62  A    between atoms: _141  and  _143
REMARK   63  A    between atoms: _143  and  _144
REMARK   64  A    between atoms: _143  and  _146
REMARK   65  A    between atoms: _146  and  _147
REMARK   66  A    between atoms: _150  and  _152
REMARK   67  A    between atoms: _152  and  _153
REMARK   68  A    between atoms: _155  and  _157
REMARK   69  A    between atoms: _157  and  _158
REMARK   70  A    between atoms: _160  and  _162
REMARK   71  A    between atoms: _162  and  _163
REMARK   72  A    between atoms: _162  and  _165
REMARK   73  A    between atoms: _165  and  _166
REMARK   74  A    between atoms: _169  and  _171
REMARK   75  A    between atoms: _171  and  _172
REMARK   76  A    between atoms: _171  and  _174
REMARK   77  A    between atoms: _174  and  _175
REMARK   78  A    between atoms: _178  and  _180
REMARK   79  A    between atoms: _180  and  _181
REMARK   80  A    between atoms: _180  and  _183
REMARK   81  A    between atoms: _183  and  _184
REMARK   82  A    between atoms: _188  and  _189
REMARK   83  A    between atoms: _194  and  _196
REMARK   84  A    between atoms: _196  and  _197
REMARK   85  A    between atoms: _196  and  _199
REMARK   86  A    between atoms: _202  and  _204
REMARK   87  A    between atoms: _204  and  _205
REMARK   88  A    between atoms: _204  and  _207
REMARK   89  A    between atoms: _207  and  _208
REMARK   90  A    between atoms: _213  and  _215
REMARK   91  A    between atoms: _215  and  _216
REMARK   92  A    between atoms: _215  and  _218
REMARK   93  A    between atoms: _218  and  _219
REMARK   94  A    between atoms: _222  and  _224
REMARK   95  A    between atoms: _224  and  _225
REMARK   96  A    between atoms: _224  and  _227
REMARK   97  A    between atoms: _227  and  _228
REMARK   98  A    between atoms: _231  and  _233
REMARK   99  A    between atoms: _233  and  _234
REMARK  100  A    between atoms: _236  and  _238
REMARK  101  A    between atoms: _238  and  _239
REMARK  102  A    between atoms: _238  and  _241
REMARK  103  A    between atoms: _241  and  _242
REMARK  104  A    between atoms: _242  and  _243
REMARK  105  A    between atoms: _243  and  _244
REMARK  106  A    between atoms: _253  and  _255
REMARK  107  A    between atoms: _255  and  _256
REMARK  108  A    between atoms: _255  and  _258
REMARK  109  A    between atoms: _258  and  _259
REMARK  110  A    between atoms: _264  and  _266
REMARK  111  A    between atoms: _266  and  _267
REMARK  112  A    between atoms: _266  and  _269
REMARK  113  A    between atoms: _269  and  _270
REMARK  114  A    between atoms: _270  and  _271
REMARK  115  A    between atoms: _271  and  _272
REMARK  116  A    between atoms: _281  and  _283
REMARK  117  A    between atoms: _283  and  _284
REMARK  118  A    between atoms: _283  and  _286
REMARK  119  A    between atoms: _286  and  _287
REMARK  120  A    between atoms: _290  and  _292
REMARK  121  A    between atoms: _292  and  _293
REMARK  122  A    between atoms: _292  and  _295
REMARK  123  A    between atoms: _295  and  _296
REMARK  124  A    between atoms: _299  and  _301
REMARK  125  A    between atoms: _301  and  _302
REMARK  126  A    between atoms: _301  and  _304
REMARK  127  A    between atoms: _304  and  _305
REMARK  128  A    between atoms: _308  and  _310
REMARK  129  A    between atoms: _310  and  _311
REMARK  130  A    between atoms: _310  and  _313
REMARK  131  A    between atoms: _313  and  _314
REMARK  132  A    between atoms: _317  and  _319
REMARK  133  A    between atoms: _319  and  _320
REMARK  134  A    between atoms: _322  and  _324
REMARK  135  A    between atoms: _324  and  _325
REMARK  136  A    between atoms: _328  and  _330
REMARK  137  A    between atoms: _330  and  _331
REMARK  138  A    between atoms: _330  and  _333
REMARK  139  A    between atoms: _333  and  _334
REMARK  140  A    between atoms: _337  and  _339
REMARK  141  A    between atoms: _339  and  _340
REMARK  142  A    between atoms: _339  and  _342
REMARK  143  A    between atoms: _342  and  _343
REMARK  144  A    between atoms: _346  and  _348
REMARK  145  A    between atoms: _348  and  _349
REMARK  146  A    between atoms: _348  and  _351
REMARK  147  A    between atoms: _351  and  _352
REMARK  148  A    between atoms: _355  and  _357
REMARK  149  A    between atoms: _357  and  _358
REMARK  150  A    between atoms: _357  and  _360
REMARK  151  A    between atoms: _363  and  _365
REMARK  152  A    between atoms: _365  and  _366
REMARK  153  A    between atoms: _365  and  _368
REMARK  154  A    between atoms: _368  and  _369
REMARK  155  A    between atoms: _369  and  _370
REMARK  156  A    between atoms: _370  and  _371
REMARK  157  A    between atoms: _371  and  _372
REMARK  158  A    between atoms: _376  and  _378
REMARK  159  A    between atoms: _378  and  _379
REMARK  160  A    between atoms: _378  and  _381
REMARK  161  A    between atoms: _381  and  _382
REMARK  162  A    between atoms: _382  and  _383
REMARK  163  A    between atoms: _385  and  _387
REMARK  164  A    between atoms: _387  and  _388
REMARK  165  A    between atoms: _387  and  _390
REMARK  166  A    between atoms: _390  and  _391
REMARK  167  A    between atoms: _394  and  _396
REMARK  168  A    between atoms: _396  and  _397
REMARK  169  A    between atoms: _399  and  _401
REMARK  170  A    between atoms: _401  and  _402
REMARK  171  A    between atoms: _404  and  _406
REMARK  172  A    between atoms: _406  and  _407
REMARK  173  A    between atoms: _406  and  _409
REMARK  174  A    between atoms: _409  and  _410
REMARK  175  A    between atoms: _413  and  _415
REMARK  176  A    between atoms: _415  and  _416
REMARK  177  A    between atoms: _418  and  _420
REMARK  178  A    between atoms: _420  and  _421
REMARK  179  A    between atoms: _423  and  _425
REMARK  180  A    between atoms: _425  and  _426
REMARK  181  A    between atoms: _425  and  _428
REMARK  182  A    between atoms: _428  and  _429
REMARK  183  A    between atoms: _432  and  _434
REMARK  184  A    between atoms: _434  and  _435
REMARK  185  A    between atoms: _434  and  _437
REMARK  186  A    between atoms: _440  and  _442
REMARK  187  A    between atoms: _442  and  _443
REMARK  188  A    between atoms: _442  and  _445
REMARK  189  A    between atoms: _445  and  _446
REMARK  190  A    between atoms: _449  and  _451
REMARK  191  A    between atoms: _451  and  _452
REMARK  192  A    between atoms: _451  and  _454
REMARK  193  A    between atoms: _454  and  _455
REMARK  194  A    between atoms: _459  and  _460
REMARK  195  A    between atoms: _465  and  _467
REMARK  196  A    between atoms: _467  and  _468
REMARK  197  A    between atoms: _467  and  _470
REMARK  198  A    between atoms: _473  and  _475
REMARK  199  A    between atoms: _475  and  _476
REMARK  200  A    between atoms: _475  and  _478
REMARK  201  A    between atoms: _478  and  _479
REMARK  202  A    between atoms: _484  and  _486
REMARK  203  A    between atoms: _486  and  _487
REMARK  204  A    between atoms: _486  and  _489
REMARK  205  A    between atoms: _489  and  _490
REMARK  206  A    between atoms: _493  and  _495
REMARK  207  A    between atoms: _495  and  _496
REMARK  208  A    between atoms: _495  and  _498
REMARK  209  A    between atoms: _498  and  _499
REMARK  210  A    between atoms: _502  and  _504
REMARK  211  A    between atoms: _504  and  _505
REMARK  212  A    between atoms: _507  and  _509
REMARK  213  A    between atoms: _509  and  _510
REMARK  214  A    between atoms: _509  and  _512
REMARK  215  A    between atoms: _512  and  _513
REMARK  216  A    between atoms: _513  and  _514
REMARK  217  A    between atoms: _514  and  _515
REMARK  218  A    between atoms: _524  and  _526
REMARK  219  A    between atoms: _526  and  _527
REMARK  220  A    between atoms: _526  and  _529
REMARK  221  A    between atoms: _529  and  _530
REMARK                            x       y       z     vdW  Elec       q    Type
REMARK                         _______ _______ _______ _____ _____    ______ ____
ROOT
ATOM      1  NE  ARG A   1       3.242 -23.451  -5.513  0.00  0.00    -0.265 N 
ATOM      2  CZ  ARG A   1       3.150 -22.205  -5.039  0.00  0.00    +0.342 C 
ATOM      3  NH2 ARG A   1       3.314 -21.950  -3.731  0.00  0.00    -0.292 N 
ATOM      4 HH21 ARG A   1       3.516 -22.728  -3.071  0.00  0.00    +0.255 HD
ATOM      5 HH22 ARG A   1       3.239 -20.975  -3.378  0.00  0.00    +0.255 HD
ATOM      6  NH1 ARG A   1       2.886 -21.208  -5.887  0.00  0.00    -0.292 N 
ATOM      7 HH11 ARG A   1       2.811 -20.232  -5.535  0.00  0.00    +0.255 HD
ATOM      8 HH12 ARG A   1       2.755 -21.407  -6.899  0.00  0.00    +0.255 HD
ATOM      9  HE  ARG A   1       3.107 -23.587  -6.535  0.00  0.00    +0.259 HD
ENDROOT
BRANCH   1  10
ATOM     10  CD  ARG A   1       3.518 -24.638  -4.704  0.00  0.00    +0.174 C 
BRANCH  10  11
ATOM     11  CG  ARG A   1       4.744 -25.422  -5.204  0.00  0.00    +0.045 C 
BRANCH  11  12
ATOM     12  CB  ARG A   1       4.976 -26.652  -4.327  0.00  0.00    +0.029 C 
BRANCH  12  13
ATOM     13  CA  ARG A   1       6.247 -27.424  -4.681  0.00  0.00    +0.133 C 
BRANCH  13  14
ATOM     14  N   ARG A   1       6.135 -28.007  -6.024  0.00  0.00    -0.239 NA
ATOM     15  H   ARG A   1       5.288 -27.806  -6.593  0.00  0.00    +0.142 HD
ENDBRANCH  13  14
BRANCH  13  16
ATOM     16  C   ARG A   1       6.453 -28.501  -3.636  0.00  0.00    +0.224 C 
ATOM     17  O   ARG A   1       5.705 -29.486  -3.628  0.00  0.00    -0.287 OA
ENDBRANCH  13  16
ENDBRANCH  12  13
ENDBRANCH  11  12
ENDBRANCH  10  11
ENDBRANCH   1  10
TORSDOF 6
REMARK  Name = ../refined-set-2016/4hla/4hla_pocket.pdb
REMARK  221 active torsions:
REMARK  status: ('A' for Active; 'I' for Inactive)
REMARK    1  A    between atoms: _1  and  _3
REMARK    2  A    between atoms: _3  and  _4
REMARK    3  A    between atoms: _3  and  _6
REMARK    4  A    between atoms: _6  and  _7
REMARK    5  A    between atoms: _7  and  _8
REMARK    6  A    between atoms: _8  and  _9
REMARK    7  A    between atoms: _18  and  _20
REMARK    8  A    between atoms: _20  and  _21
REMARK    9  A    between atoms: _20  and  _23
REMARK   10  A    between atoms: _23  and  _24
REMARK   11  A    between atoms: _27  and  _29
REMARK   12  A    between atoms: _29  and  _30
REMARK   13  A    between atoms: _29  and  _32
REMARK   14  A    between atoms: _32  and  _33
REMARK   15  A    between atoms: _36  and  _38
REMARK   16  A    between atoms: _38  and  _39
REMARK   17  A    between atoms: _38  and  _41
REMARK   18  A    between atoms: _41  and  _42
REMARK   19  A    between atoms: _45  and  _47
REMARK   20  A    between atoms: _47  and  _48
REMARK   21  A    between atoms: _47  and  _50
REMARK   22  A    between atoms: _50  and  _51
REMARK   23  A    between atoms: _54  and  _56
REMARK   24  A    between atoms: _56  and  _57
REMARK   25  A    between atoms: _59  and  _61
REMARK   26  A    between atoms: _61  and  _62
REMARK   27  A    between atoms: _65  and  _67
REMARK   28  A    between atoms: _67  and  _68
REMARK   29  A    between atoms: _67  and  _70
REMARK   30  A    between atoms: _70  and  _71
REMARK   31  A    between atoms: _74  and  _76
REMARK   32  A    between atoms: _76  and  _77
REMARK   33  A    between atoms: _76  and  _79
REMARK   34  A    between atoms: _79  and  _80
REMARK   35  A    between atoms: _83  and  _85
REMARK   36  A    between atoms: _85  and  _86
REMARK   37  A    between atoms: _85  and  _88
REMARK   38  A    between atoms: _88  and  _89
REMARK   39  A    between atoms: _92  and  _94
REMARK   40  A    between atoms: _94  and  _95
REMARK   41  A    between atoms: _94  and  _97
REMARK   42  A    between atoms: _100  and  _102
REMARK   43  A    between atoms: _102  and  _103
REMARK   44  A    between atoms: _102  and  _105
REMARK   45  A    between atoms: _105  and  _106
REMARK   46  A    between atoms: _106  and  _107
REMARK   47  A    between atoms: _107  and  _108
REMARK   48  A    between atoms: _108  and  _109
REMARK   49  A    between atoms: _113  and  _115
REMARK   50  A    between atoms: _115  and  _116
REMARK   51  A    between atoms: _115  and  _118
REMARK   52  A    between atoms: _118  and  _119
REMARK   53  A    between atoms: _119  and  _120
REMARK   54  A    between atoms: _122  and  _124
REMARK   55  A    between atoms: _124  and  _125
REMARK   56  A    between atoms: _124  and  _127
REMARK   57  A    between atoms: _127  and  _128
REMARK   58  A    between atoms: _131  and  _133
REMARK   59  A    between atoms: _133  and  _134
REMARK   60  A    between atoms: _136  and  _138
REMARK   61  A    between atoms: _138  and  _139
REMARK   62  A    between atoms: _141  and  _143
REMARK   63  A    between atoms: _143  and  _144
REMARK   64  A    between atoms: _143  and  _146
REMARK   65  A    between atoms: _146  and  _147
REMARK   66  A    between atoms: _150  and  _152
REMARK   67  A    between atoms: _152  and  _153
REMARK   68  A    between atoms: _155  and  _157
REMARK   69  A    between atoms: _157  and  _158
REMARK   70  A    between atoms: _160  and  _162
REMARK   71  A    between atoms: _162  and  _163
REMARK   72  A    between atoms: _162  and  _165
REMARK   73  A    between atoms: _165  and  _166
REMARK   74  A    between atoms: _169  and  _171
REMARK   75  A    between atoms: _171  and  _172
REMARK   76  A    between atoms: _171  and  _174
REMARK   77  A    between atoms: _174  and  _175
REMARK   78  A    between atoms: _178  and  _180
REMARK   79  A    between atoms: _180  and  _181
REMARK   80  A    between atoms: _180  and  _183
REMARK   81  A    between atoms: _183  and  _184
REMARK   82  A    between atoms: _188  and  _189
REMARK   83  A    between atoms: _194  and  _196
REMARK   84  A    between atoms: _196  and  _197
REMARK   85  A    between atoms: _196  and  _199
REMARK   86  A    between atoms: _202  and  _204
REMARK   87  A    between atoms: _204  and  _205
REMARK   88  A    between atoms: _204  and  _207
REMARK   89  A    between atoms: _207  and  _208
REMARK   90  A    between atoms: _213  and  _215
REMARK   91  A    between atoms: _215  and  _216
REMARK   92  A    between atoms: _215  and  _218
REMARK   93  A    between atoms: _218  and  _219
REMARK   94  A    between atoms: _222  and  _224
REMARK   95  A    between atoms: _224  and  _225
REMARK   96  A    between atoms: _224  and  _227
REMARK   97  A    between atoms: _227  and  _228
REMARK   98  A    between atoms: _231  and  _233
REMARK   99  A    between atoms: _233  and  _234
REMARK  100  A    between atoms: _236  and  _238
REMARK  101  A    between atoms: _238  and  _239
REMARK  102  A    between atoms: _238  and  _241
REMARK  103  A    between atoms: _241  and  _242
REMARK  104  A    between atoms: _242  and  _243
REMARK  105  A    between atoms: _243  and  _244
REMARK  106  A    between atoms: _253  and  _255
REMARK  107  A    between atoms: _255  and  _256
REMARK  108  A    between atoms: _255  and  _258
REMARK  109  A    between atoms: _258  and  _259
REMARK  110  A    between atoms: _264  and  _266
REMARK  111  A    between atoms: _266  and  _267
REMARK  112  A    between atoms: _266  and  _269
REMARK  113  A    between atoms: _269  and  _270
REMARK  114  A    between atoms: _270  and  _271
REMARK  115  A    between atoms: _271  and  _272
REMARK  116  A    between atoms: _281  and  _283
REMARK  117  A    between atoms: _283  and  _284
REMARK  118  A    between atoms: _283  and  _286
REMARK  119  A    between atoms: _286  and  _287
REMARK  120  A    between atoms: _290  and  _292
REMARK  121  A    between atoms: _292  and  _293
REMARK  122  A    between atoms: _292  and  _295
REMARK  123  A    between atoms: _295  and  _296
REMARK  124  A    between atoms: _299  and  _301
REMARK  125  A    between atoms: _301  and  _302
REMARK  126  A    between atoms: _301  and  _304
REMARK  127  A    between atoms: _304  and  _305
REMARK  128  A    between atoms: _308  and  _310
REMARK  129  A    between atoms: _310  and  _311
REMARK  130  A    between atoms: _310  and  _313
REMARK  131  A    between atoms: _313  and  _314
REMARK  132  A    between atoms: _317  and  _319
REMARK  133  A    between atoms: _319  and  _320
REMARK  134  A    between atoms: _322  and  _324
REMARK  135  A    between atoms: _324  and  _325
REMARK  136  A    between atoms: _328  and  _330
REMARK  137  A    between atoms: _330  and  _331
REMARK  138  A    between atoms: _330  and  _333
REMARK  139  A    between atoms: _333  and  _334
REMARK  140  A    between atoms: _337  and  _339
REMARK  141  A    between atoms: _339  and  _340
REMARK  142  A    between atoms: _339  and  _342
REMARK  143  A    between atoms: _342  and  _343
REMARK  144  A    between atoms: _346  and  _348
REMARK  145  A    between atoms: _348  and  _349
REMARK  146  A    between atoms: _348  and  _351
REMARK  147  A    between atoms: _351  and  _352
REMARK  148  A    between atoms: _355  and  _357
REMARK  149  A    between atoms: _357  and  _358
REMARK  150  A    between atoms: _357  and  _360
REMARK  151  A    between atoms: _363  and  _365
REMARK  152  A    between atoms: _365  and  _366
REMARK  153  A    between atoms: _365  and  _368
REMARK  154  A    between atoms: _368  and  _369
REMARK  155  A    between atoms: _369  and  _370
REMARK  156  A    between atoms: _370  and  _371
REMARK  157  A    between atoms: _371  and  _372
REMARK  158  A    between atoms: _376  and  _378
REMARK  159  A    between atoms: _378  and  _379
REMARK  160  A    between atoms: _378  and  _381
REMARK  161  A    between atoms: _381  and  _382
REMARK  162  A    between atoms: _382  and  _383
REMARK  163  A    between atoms: _385  and  _387
REMARK  164  A    between atoms: _387  and  _388
REMARK  165  A    between atoms: _387  and  _390
REMARK  166  A    between atoms: _390  and  _391
REMARK  167  A    between atoms: _394  and  _396
REMARK  168  A    between atoms: _396  and  _397
REMARK  169  A    between atoms: _399  and  _401
REMARK  170  A    between atoms: _401  and  _402
REMARK  171  A    between atoms: _404  and  _406
REMARK  172  A    between atoms: _406  and  _407
REMARK  173  A    between atoms: _406  and  _409
REMARK  174  A    between atoms: _409  and  _410
REMARK  175  A    between atoms: _413  and  _415
REMARK  176  A    between atoms: _415  and  _416
REMARK  177  A    between atoms: _418  and  _420
REMARK  178  A    between atoms: _420  and  _421
REMARK  179  A    between atoms: _423  and  _425
REMARK  180  A    between atoms: _425  and  _426
REMARK  181  A    between atoms: _425  and  _428
REMARK  182  A    between atoms: _428  and  _429
REMARK  183  A    between atoms: _432  and  _434
REMARK  184  A    between atoms: _434  and  _435
REMARK  185  A    between atoms: _434  and  _437
REMARK  186  A    between atoms: _440  and  _442
REMARK  187  A    between atoms: _442  and  _443
REMARK  188  A    between atoms: _442  and  _445
REMARK  189  A    between atoms: _445  and  _446
REMARK  190  A    between atoms: _449  and  _451
REMARK  191  A    between atoms: _451  and  _452
REMARK  192  A    between atoms: _451  and  _454
REMARK  193  A    between atoms: _454  and  _455
REMARK  194  A    between atoms: _459  and  _460
REMARK  195  A    between atoms: _465  and  _467
REMARK  196  A    between atoms: _467  and  _468
REMARK  197  A    between atoms: _467  and  _470
REMARK  198  A    between atoms: _473  and  _475
REMARK  199  A    between atoms: _475  and  _476
REMARK  200  A    between atoms: _475  and  _478
REMARK  201  A    between atoms: _478  and  _479
REMARK  202  A    between atoms: _484  and  _486
REMARK  203  A    between atoms: _486  and  _487
REMARK  204  A    between atoms: _486  and  _489
REMARK  205  A    between atoms: _489  and  _490
REMARK  206  A    between atoms: _493  and  _495
REMARK  207  A    between atoms: _495  and  _496
REMARK  208  A    between atoms: _495  and  _498
REMARK  209  A    between atoms: _498  and  _499
REMARK  210  A    between atoms: _502  and  _504
REMARK  211  A    between atoms: _504  and  _505
REMARK  212  A    between atoms: _507  and  _509
REMARK  213  A    between atoms: _509  and  _510
REMARK  214  A    between atoms: _509  and  _512
REMARK  215  A    between atoms: _512  and  _513
REMARK  216  A    between atoms: _513  and  _514
REMARK  217  A    between atoms: _514  and  _515
REMARK  218  A    between atoms: _524  and  _526
REMARK  219  A    between atoms: _526  and  _527
REMARK  220  A    between atoms: _526  and  _529
REMARK  221  A    between atoms: _529  and  _530
REMARK                            x       y       z     vdW  Elec       q    Type
REMARK                         _______ _______ _______ _____ _____    ______ ____
ROOT
ATOM      1  C   GLY A   5      13.508 -18.558   3.131  0.00  0.00    +0.243 C 
ATOM      2  N   ALA A   6      12.872 -19.273   4.051  0.00  0.00    -0.297 N 
ATOM      3  H   ALA A   6      12.899 -20.311   3.989  0.00  0.00    +0.150 HD
ATOM      4  O   GLY A   5      13.566 -17.331   3.175  0.00  0.00    -0.273 OA
ENDROOT
BRANCH   2   5
ATOM      5  CA  ALA A   6      12.137 -18.650   5.146  0.00  0.00    +0.149 C 
ATOM      6  CB  ALA A   6      10.718 -19.242   5.213  0.00  0.00    +0.031 C 
BRANCH   5   7
ATOM      7  C   ALA A   6      12.876 -18.930   6.449  0.00  0.00    +0.241 C 
ATOM      8  N   ASP A   7      13.264 -17.881   7.174  0.00  0.00    -0.297 N 
ATOM      9  H   ASP A   7      13.077 -16.918   6.829  0.00  0.00    +0.150 HD
ATOM     10  O   ALA A   6      13.103 -20.087   6.789  0.00  0.00    -0.273 OA
BRANCH   8  11
ATOM     11  CA  ASP A   7      13.950 -18.074   8.448  0.00  0.00    +0.160 C 
BRANCH  11  12
ATOM     12  C   ASP A   7      13.023 -18.757   9.430  0.00  0.00    +0.241 C 
ATOM     13  O   ASP A   7      13.435 -19.658  10.163  0.00  0.00    -0.273 OA
ATOM     14  N   ASP A   8      11.768 -18.306   9.438  0.00  0.00    -0.297 N 
ATOM     15  H   ASP A   8      11.479 -17.629   8.704  0.00  0.00    +0.150 HD
BRANCH  14  16
ATOM     16  CA  ASP A   8      10.782 -18.720  10.431  0.00  0.00    +0.160 C 
BRANCH  16  17
ATOM     17  C   ASP A   8       9.546 -19.352   9.792  0.00  0.00    +0.241 C 
ATOM     18  N   THR A   9       8.882 -20.185  10.570  0.00  0.00    -0.295 N 
ATOM     19  H   THR A   9       9.263 -20.401  11.513  0.00  0.00    +0.150 HD
ATOM     20  O   ASP A   8       9.184 -19.062   8.658  0.00  0.00    -0.273 OA
BRANCH  18  21
ATOM     21  CA  THR A   9       7.642 -20.810  10.160  0.00  0.00    +0.176 C 
BRANCH  21  22
ATOM     22  C   THR A   9       6.476 -19.842  10.319  0.00  0.00    +0.243 C 
ATOM     23  O   THR A   9       6.315 -19.235  11.380  0.00  0.00    -0.273 OA
ATOM     24  N   VAL A  10       5.683 -19.697   9.261  0.00  0.00    -0.298 N 
ATOM     25  H   VAL A  10       5.919 -20.213   8.389  0.00  0.00    +0.150 HD
BRANCH  24  26
ATOM     26  CA  VAL A  10       4.493 -18.843   9.268  0.00  0.00    +0.137 C 
BRANCH  26  27
ATOM     27  CB  VAL A  10       4.764 -17.481   8.594  0.00  0.00    +0.026 C 
ATOM     28  CG2 VAL A  10       3.528 -16.598   8.623  0.00  0.00    +0.002 C 
ATOM     29  CG1 VAL A  10       5.268 -17.668   7.182  0.00  0.00    +0.002 C 
ENDBRANCH  26  27
BRANCH  26  30
ATOM     30  C   VAL A  10       3.255 -19.522   8.637  0.00  0.00    +0.227 C 
ATOM     31  O   VAL A  10       3.280 -19.961   7.494  0.00  0.00    -0.286 OA
ENDBRANCH  26  30
ENDBRANCH  24  26
ENDBRANCH  21  22
BRANCH  21  32
ATOM     32  CB  THR A   9       7.427 -22.065  11.019  0.00  0.00    +0.137 C 
ATOM     33  CG2 THR A   9       6.064 -22.686  10.771  0.00  0.00    +0.034 C 
BRANCH  32  34
ATOM     34  OG1 THR A   9       8.471 -22.994  10.711  0.00  0.00    -0.382 OA
ATOM     35  HG1 THR A   9       9.348 -22.583  10.917  0.00  0.00    +0.210 HD
ENDBRANCH  32  34
ENDBRANCH  21  32
ENDBRANCH  18  21
ENDBRANCH  16  17
BRANCH  16  36
ATOM     36  CB  ASP A   8      10.299 -17.513  11.249  0.00  0.00    +0.143 C 
BRANCH  36  37
ATOM     37  CG  ASP A   8      11.434 -16.707  11.832  0.00  0.00    +0.367 C 
ATOM     38  OD2 ASP A   8      12.104 -17.227  12.741  0.00  0.00    -0.246 OA
ATOM     39  OD1 ASP A   8      11.636 -15.559  11.382  0.00  0.00    -0.246 OA
ENDBRANCH  36  37
ENDBRANCH  16  36
ENDBRANCH  14  16
ENDBRANCH  11  12
BRANCH  11  40
ATOM     40  CB  ASP A   7      14.390 -16.737   9.060  0.00  0.00    +0.143 C 
BRANCH  40  41
ATOM     41  CG  ASP A   7      15.376 -15.986   8.191  0.00  0.00    +0.367 C 
ATOM     42  OD2 ASP A   7      15.473 -14.751   8.369  0.00  0.00    -0.246 OA
ATOM     43  OD1 ASP A   7      16.047 -16.624   7.341  0.00  0.00    -0.246 OA
ENDBRANCH  40  41
ENDBRANCH  11  40
ENDBRANCH   8  11
ENDBRANCH   5   7
ENDBRANCH   2   5
BRANCH   1  44
ATOM     44  CA  GLY A   5      14.175 -19.325   2.000  0.00  0.00    +0.176 C 
BRANCH  44  47
ATOM     45  C   THR A   4      14.873 -21.527   2.746  0.00  0.00    +0.243 C 
ATOM     46  O   THR A   4      15.801 -21.048   3.393  0.00  0.00    -0.273 OA
ATOM     47  N   GLY A   5      14.047 -20.774   2.028  0.00  0.00    -0.295 N 
ATOM     48  H   GLY A   5      13.293 -21.230   1.475  0.00  0.00    +0.150 HD
BRANCH  45  49
ATOM     49  CA  THR A   4      14.598 -23.030   2.768  0.00  0.00    +0.176 C 
BRANCH  49  52
ATOM     50  C   ASP A   3      12.174 -23.022   3.054  0.00  0.00    +0.241 C 
ATOM     51  O   ASP A   3      12.257 -22.358   4.074  0.00  0.00    -0.273 OA
ATOM     52  N   THR A   4      13.233 -23.371   2.334  0.00  0.00    -0.295 N 
ATOM     53  H   THR A   4      13.096 -23.895   1.446  0.00  0.00    +0.150 HD
BRANCH  50  54
ATOM     54  CA  ASP A   3      10.806 -23.467   2.514  0.00  0.00    +0.160 C 
BRANCH  54  56
ATOM     55  C   LEU A   2       9.909 -25.687   2.383  0.00  0.00    +0.241 C 
ATOM     56  N   ASP A   3      10.321 -24.681   3.144  0.00  0.00    -0.297 N 
ATOM     57  H   ASP A   3      10.297 -24.762   4.181  0.00  0.00    +0.150 HD
ATOM     58  O   LEU A   2      10.148 -25.739   1.177  0.00  0.00    -0.273 OA
BRANCH  55  59
ATOM     59  CA  LEU A   2       9.107 -26.787   3.054  0.00  0.00    +0.149 C 
BRANCH  59  62
ATOM     60  C   LEU A   1       6.916 -25.746   2.794  0.00  0.00    +0.238 C 
ATOM     61  O   LEU A   1       7.127 -24.952   3.721  0.00  0.00    -0.274 OA
ATOM     62  N   LEU A   2       7.764 -26.731   2.482  0.00  0.00    -0.297 N 
ATOM     63  H   LEU A   2       7.462 -27.473   1.819  0.00  0.00    +0.150 HD
BRANCH  60  64
ATOM     64  CA  LEU A   1       5.623 -25.660   1.991  0.00  0.00    +0.145 C 
BRANCH  64  65
ATOM     65  N   LEU A   1       4.509 -25.672   2.910  0.00  0.00    -0.238 NA
ATOM     66  H   LEU A   1       4.153 -24.760   3.262  0.00  0.00    +0.142 HD
ENDBRANCH  64  65
BRANCH  64  67
ATOM     67  CB  LEU A   1       5.538 -24.347   1.203  0.00  0.00    +0.026 C 
BRANCH  67  68
ATOM     68  CG  LEU A   1       6.351 -24.034  -0.050  0.00  0.00    +0.002 C 
ATOM     69  CD2 LEU A   1       6.056 -22.590  -0.456  0.00  0.00    +0.000 C 
ATOM     70  CD1 LEU A   1       6.018 -25.006  -1.184  0.00  0.00    +0.000 C 
ENDBRANCH  67  68
ENDBRANCH  64  67
ENDBRANCH  60  64
ENDBRANCH  59  62
BRANCH  59  71
ATOM     71  CB  LEU A   2       9.762 -28.110   2.732  0.00  0.00    +0.029 C 
BRANCH  71  72
ATOM     72  CG  LEU A   2       9.716 -29.296   3.689  0.00  0.00    +0.002 C 
ATOM     73  CD2 LEU A   2       8.665 -29.173   4.761  0.00  0.00    +0.000 C 
ATOM     74  CD1 LEU A   2       9.566 -30.551   2.873  0.00  0.00    +0.000 C 
ENDBRANCH  71  72
ENDBRANCH  59  71
ENDBRANCH  55  59
ENDBRANCH  54  56
BRANCH  54  75
ATOM     75  CB  ASP A   3       9.767 -22.368   2.715  0.00  0.00    +0.143 C 
BRANCH  75  76
ATOM     76  CG  ASP A   3      10.130 -21.086   2.035  0.00  0.00    +0.367 C 
ATOM     77  OD2 ASP A   3       9.283 -20.191   2.050  0.00  0.00    -0.246 OA
ATOM     78  OD1 ASP A   3      11.220 -20.976   1.450  0.00  0.00    -0.246 OA
ENDBRANCH  75  76
ENDBRANCH  54  75
ENDBRANCH  50  54
ENDBRANCH  49  52
BRANCH  49  79
ATOM     79  CB  THR A   4      15.633 -23.786   1.904  0.00  0.00    +0.137 C 
ATOM     80  CG2 THR A   4      15.414 -25.288   2.034  0.00  0.00    +0.034 C 
BRANCH  79  81
ATOM     81  OG1 THR A   4      15.460 -23.423   0.529  0.00  0.00    -0.382 OA
ATOM     82  HG1 THR A   4      15.593 -22.447   0.427  0.00  0.00    +0.210 HD
ENDBRANCH  79  81
ENDBRANCH  49  79
ENDBRANCH  45  49
ENDBRANCH  44  47
ENDBRANCH   1  44
TORSDOF 35
REMARK  Name = ../refined-set-2016/4hla/4hla_pocket.pdb
REMARK  221 active torsions:
REMARK  status: ('A' for Active; 'I' for Inactive)
REMARK    1  A    between atoms: _1  and  _3
REMARK    2  A    between atoms: _3  and  _4
REMARK    3  A    between atoms: _3  and  _6
REMARK    4  A    between atoms: _6  and  _7
REMARK    5  A    between atoms: _7  and  _8
REMARK    6  A    between atoms: _8  and  _9
REMARK    7  A    between atoms: _18  and  _20
REMARK    8  A    between atoms: _20  and  _21
REMARK    9  A    between atoms: _20  and  _23
REMARK   10  A    between atoms: _23  and  _24
REMARK   11  A    between atoms: _27  and  _29
REMARK   12  A    between atoms: _29  and  _30
REMARK   13  A    between atoms: _29  and  _32
REMARK   14  A    between atoms: _32  and  _33
REMARK   15  A    between atoms: _36  and  _38
REMARK   16  A    between atoms: _38  and  _39
REMARK   17  A    between atoms: _38  and  _41
REMARK   18  A    between atoms: _41  and  _42
REMARK   19  A    between atoms: _45  and  _47
REMARK   20  A    between atoms: _47  and  _48
REMARK   21  A    between atoms: _47  and  _50
REMARK   22  A    between atoms: _50  and  _51
REMARK   23  A    between atoms: _54  and  _56
REMARK   24  A    between atoms: _56  and  _57
REMARK   25  A    between atoms: _59  and  _61
REMARK   26  A    between atoms: _61  and  _62
REMARK   27  A    between atoms: _65  and  _67
REMARK   28  A    between atoms: _67  and  _68
REMARK   29  A    between atoms: _67  and  _70
REMARK   30  A    between atoms: _70  and  _71
REMARK   31  A    between atoms: _74  and  _76
REMARK   32  A    between atoms: _76  and  _77
REMARK   33  A    between atoms: _76  and  _79
REMARK   34  A    between atoms: _79  and  _80
REMARK   35  A    between atoms: _83  and  _85
REMARK   36  A    between atoms: _85  and  _86
REMARK   37  A    between atoms: _85  and  _88
REMARK   38  A    between atoms: _88  and  _89
REMARK   39  A    between atoms: _92  and  _94
REMARK   40  A    between atoms: _94  and  _95
REMARK   41  A    between atoms: _94  and  _97
REMARK   42  A    between atoms: _100  and  _102
REMARK   43  A    between atoms: _102  and  _103
REMARK   44  A    between atoms: _102  and  _105
REMARK   45  A    between atoms: _105  and  _106
REMARK   46  A    between atoms: _106  and  _107
REMARK   47  A    between atoms: _107  and  _108
REMARK   48  A    between atoms: _108  and  _109
REMARK   49  A    between atoms: _113  and  _115
REMARK   50  A    between atoms: _115  and  _116
REMARK   51  A    between atoms: _115  and  _118
REMARK   52  A    between atoms: _118  and  _119
REMARK   53  A    between atoms: _119  and  _120
REMARK   54  A    between atoms: _122  and  _124
REMARK   55  A    between atoms: _124  and  _125
REMARK   56  A    between atoms: _124  and  _127
REMARK   57  A    between atoms: _127  and  _128
REMARK   58  A    between atoms: _131  and  _133
REMARK   59  A    between atoms: _133  and  _134
REMARK   60  A    between atoms: _136  and  _138
REMARK   61  A    between atoms: _138  and  _139
REMARK   62  A    between atoms: _141  and  _143
REMARK   63  A    between atoms: _143  and  _144
REMARK   64  A    between atoms: _143  and  _146
REMARK   65  A    between atoms: _146  and  _147
REMARK   66  A    between atoms: _150  and  _152
REMARK   67  A    between atoms: _152  and  _153
REMARK   68  A    between atoms: _155  and  _157
REMARK   69  A    between atoms: _157  and  _158
REMARK   70  A    between atoms: _160  and  _162
REMARK   71  A    between atoms: _162  and  _163
REMARK   72  A    between atoms: _162  and  _165
REMARK   73  A    between atoms: _165  and  _166
REMARK   74  A    between atoms: _169  and  _171
REMARK   75  A    between atoms: _171  and  _172
REMARK   76  A    between atoms: _171  and  _174
REMARK   77  A    between atoms: _174  and  _175
REMARK   78  A    between atoms: _178  and  _180
REMARK   79  A    between atoms: _180  and  _181
REMARK   80  A    between atoms: _180  and  _183
REMARK   81  A    between atoms: _183  and  _184
REMARK   82  A    between atoms: _188  and  _189
REMARK   83  A    between atoms: _194  and  _196
REMARK   84  A    between atoms: _196  and  _197
REMARK   85  A    between atoms: _196  and  _199
REMARK   86  A    between atoms: _202  and  _204
REMARK   87  A    between atoms: _204  and  _205
REMARK   88  A    between atoms: _204  and  _207
REMARK   89  A    between atoms: _207  and  _208
REMARK   90  A    between atoms: _213  and  _215
REMARK   91  A    between atoms: _215  and  _216
REMARK   92  A    between atoms: _215  and  _218
REMARK   93  A    between atoms: _218  and  _219
REMARK   94  A    between atoms: _222  and  _224
REMARK   95  A    between atoms: _224  and  _225
REMARK   96  A    between atoms: _224  and  _227
REMARK   97  A    between atoms: _227  and  _228
REMARK   98  A    between atoms: _231  and  _233
REMARK   99  A    between atoms: _233  and  _234
REMARK  100  A    between atoms: _236  and  _238
REMARK  101  A    between atoms: _238  and  _239
REMARK  102  A    between atoms: _238  and  _241
REMARK  103  A    between atoms: _241  and  _242
REMARK  104  A    between atoms: _242  and  _243
REMARK  105  A    between atoms: _243  and  _244
REMARK  106  A    between atoms: _253  and  _255
REMARK  107  A    between atoms: _255  and  _256
REMARK  108  A    between atoms: _255  and  _258
REMARK  109  A    between atoms: _258  and  _259
REMARK  110  A    between atoms: _264  and  _266
REMARK  111  A    between atoms: _266  and  _267
REMARK  112  A    between atoms: _266  and  _269
REMARK  113  A    between atoms: _269  and  _270
REMARK  114  A    between atoms: _270  and  _271
REMARK  115  A    between atoms: _271  and  _272
REMARK  116  A    between atoms: _281  and  _283
REMARK  117  A    between atoms: _283  and  _284
REMARK  118  A    between atoms: _283  and  _286
REMARK  119  A    between atoms: _286  and  _287
REMARK  120  A    between atoms: _290  and  _292
REMARK  121  A    between atoms: _292  and  _293
REMARK  122  A    between atoms: _292  and  _295
REMARK  123  A    between atoms: _295  and  _296
REMARK  124  A    between atoms: _299  and  _301
REMARK  125  A    between atoms: _301  and  _302
REMARK  126  A    between atoms: _301  and  _304
REMARK  127  A    between atoms: _304  and  _305
REMARK  128  A    between atoms: _308  and  _310
REMARK  129  A    between atoms: _310  and  _311
REMARK  130  A    between atoms: _310  and  _313
REMARK  131  A    between atoms: _313  and  _314
REMARK  132  A    between atoms: _317  and  _319
REMARK  133  A    between atoms: _319  and  _320
REMARK  134  A    between atoms: _322  and  _324
REMARK  135  A    between atoms: _324  and  _325
REMARK  136  A    between atoms: _328  and  _330
REMARK  137  A    between atoms: _330  and  _331
REMARK  138  A    between atoms: _330  and  _333
REMARK  139  A    between atoms: _333  and  _334
REMARK  140  A    between atoms: _337  and  _339
REMARK  141  A    between atoms: _339  and  _340
REMARK  142  A    between atoms: _339  and  _342
REMARK  143  A    between atoms: _342  and  _343
REMARK  144  A    between atoms: _346  and  _348
REMARK  145  A    between atoms: _348  and  _349
REMARK  146  A    between atoms: _348  and  _351
REMARK  147  A    between atoms: _351  and  _352
REMARK  148  A    between atoms: _355  and  _357
REMARK  149  A    between atoms: _357  and  _358
REMARK  150  A    between atoms: _357  and  _360
REMARK  151  A    between atoms: _363  and  _365
REMARK  152  A    between atoms: _365  and  _366
REMARK  153  A    between atoms: _365  and  _368
REMARK  154  A    between atoms: _368  and  _369
REMARK  155  A    between atoms: _369  and  _370
REMARK  156  A    between atoms: _370  and  _371
REMARK  157  A    between atoms: _371  and  _372
REMARK  158  A    between atoms: _376  and  _378
REMARK  159  A    between atoms: _378  and  _379
REMARK  160  A    between atoms: _378  and  _381
REMARK  161  A    between atoms: _381  and  _382
REMARK  162  A    between atoms: _382  and  _383
REMARK  163  A    between atoms: _385  and  _387
REMARK  164  A    between atoms: _387  and  _388
REMARK  165  A    between atoms: _387  and  _390
REMARK  166  A    between atoms: _390  and  _391
REMARK  167  A    between atoms: _394  and  _396
REMARK  168  A    between atoms: _396  and  _397
REMARK  169  A    between atoms: _399  and  _401
REMARK  170  A    between atoms: _401  and  _402
REMARK  171  A    between atoms: _404  and  _406
REMARK  172  A    between atoms: _406  and  _407
REMARK  173  A    between atoms: _406  and  _409
REMARK  174  A    between atoms: _409  and  _410
REMARK  175  A    between atoms: _413  and  _415
REMARK  176  A    between atoms: _415  and  _416
REMARK  177  A    between atoms: _418  and  _420
REMARK  178  A    between atoms: _420  and  _421
REMARK  179  A    between atoms: _423  and  _425
REMARK  180  A    between atoms: _425  and  _426
REMARK  181  A    between atoms: _425  and  _428
REMARK  182  A    between atoms: _428  and  _429
REMARK  183  A    between atoms: _432  and  _434
REMARK  184  A    between atoms: _434  and  _435
REMARK  185  A    between atoms: _434  and  _437
REMARK  186  A    between atoms: _440  and  _442
REMARK  187  A    between atoms: _442  and  _443
REMARK  188  A    between atoms: _442  and  _445
REMARK  189  A    between atoms: _445  and  _446
REMARK  190  A    between atoms: _449  and  _451
REMARK  191  A    between atoms: _451  and  _452
REMARK  192  A    between atoms: _451  and  _454
REMARK  193  A    between atoms: _454  and  _455
REMARK  194  A    between atoms: _459  and  _460
REMARK  195  A    between atoms: _465  and  _467
REMARK  196  A    between atoms: _467  and  _468
REMARK  197  A    between atoms: _467  and  _470
REMARK  198  A    between atoms: _473  and  _475
REMARK  199  A    between atoms: _475  and  _476
REMARK  200  A    between atoms: _475  and  _478
REMARK  201  A    between atoms: _478  and  _479
REMARK  202  A    between atoms: _484  and  _486
REMARK  203  A    between atoms: _486  and  _487
REMARK  204  A    between atoms: _486  and  _489
REMARK  205  A    between atoms: _489  and  _490
REMARK  206  A    between atoms: _493  and  _495
REMARK  207  A    between atoms: _495  and  _496
REMARK  208  A    between atoms: _495  and  _498
REMARK  209  A    between atoms: _498  and  _499
REMARK  210  A    between atoms: _502  and  _504
REMARK  211  A    between atoms: _504  and  _505
REMARK  212  A    between atoms: _507  and  _509
REMARK  213  A    between atoms: _509  and  _510
REMARK  214  A    between atoms: _509  and  _512
REMARK  215  A    between atoms: _512  and  _513
REMARK  216  A    between atoms: _513  and  _514
REMARK  217  A    between atoms: _514  and  _515
REMARK  218  A    between atoms: _524  and  _526
REMARK  219  A    between atoms: _526  and  _527
REMARK  220  A    between atoms: _526  and  _529
REMARK  221  A    between atoms: _529  and  _530
REMARK                            x       y       z     vdW  Elec       q    Type
REMARK                         _______ _______ _______ _____ _____    ______ ____
ROOT
ATOM      1  C   ILE A   3       7.841  -9.631   7.791  0.00  0.00    +0.241 C 
ATOM      2  O   ILE A   3       6.810  -9.230   7.258  0.00  0.00    -0.273 OA
ATOM      3  N   GLY A   4       9.019  -9.618   7.182  0.00  0.00    -0.295 N 
ATOM      4  H   GLY A   4       9.848 -10.027   7.659  0.00  0.00    +0.150 HD
ENDROOT
BRANCH   1   5
ATOM      5  CA  ILE A   3       7.833 -10.185   9.208  0.00  0.00    +0.149 C 
BRANCH   5   8
ATOM      6  C   MET A   2       7.186  -8.895  11.148  0.00  0.00    +0.241 C 
ATOM      7  O   MET A   2       8.349  -8.810  11.523  0.00  0.00    -0.273 OA
ATOM      8  N   ILE A   3       6.834  -9.539  10.042  0.00  0.00    -0.297 N 
ATOM      9  H   ILE A   3       5.831  -9.582   9.769  0.00  0.00    +0.150 HD
BRANCH   6  10
ATOM     10  CA  MET A   2       6.068  -8.242  11.942  0.00  0.00    +0.149 C 
BRANCH  10  13
ATOM     11  C   LYS A   1       5.197  -8.928  14.102  0.00  0.00    +0.238 C 
ATOM     12  O   LYS A   1       4.081  -9.130  13.631  0.00  0.00    -0.274 OA
ATOM     13  N   MET A   2       6.209  -8.475  13.372  0.00  0.00    -0.297 N 
ATOM     14  H   MET A   2       7.122  -8.282  13.831  0.00  0.00    +0.150 HD
BRANCH  11  15
ATOM     15  CA  LYS A   1       5.467  -9.185  15.580  0.00  0.00    +0.145 C 
BRANCH  15  16
ATOM     16  N   LYS A   1       4.184  -9.249  16.265  0.00  0.00    -0.238 NA
ATOM     17  H   LYS A   1       3.330  -9.433  15.700  0.00  0.00    +0.142 HD
ENDBRANCH  15  16
BRANCH  15  18
ATOM     18  CB  LYS A   1       6.217 -10.507  15.761  0.00  0.00    +0.026 C 
BRANCH  18  19
ATOM     19  CG  LYS A   1       7.661 -10.510  15.301  0.00  0.00    -0.000 C 
BRANCH  19  20
ATOM     20  CD  LYS A   1       8.177 -11.939  15.162  0.00  0.00    -0.024 C 
BRANCH  20  21
ATOM     21  CE  LYS A   1       9.491 -11.990  14.387  0.00  0.00    -0.086 C 
BRANCH  21  22
ATOM     22  NZ  LYS A   1       9.936 -13.393  14.132  0.00  0.00    +0.380 N 
ATOM     23  HZ1 LYS A   1      10.074 -13.882  15.039  0.00  0.00    -0.089 HD
ATOM     24  HZ2 LYS A   1      10.832 -13.381  13.604  0.00  0.00    -0.089 HD
ATOM     25  HZ3 LYS A   1       9.211 -13.890  13.576  0.00  0.00    -0.089 HD
ENDBRANCH  21  22
ENDBRANCH  20  21
ENDBRANCH  19  20
ENDBRANCH  18  19
ENDBRANCH  15  18
ENDBRANCH  11  15
ENDBRANCH  10  13
BRANCH  10  26
ATOM     26  CB  MET A   2       6.048  -6.748  11.648  0.00  0.00    +0.041 C 
BRANCH  26  27
ATOM     27  CG  MET A   2       4.688  -6.223  11.267  0.00  0.00    +0.060 C 
BRANCH  27  28
ATOM     28  SD  MET A   2       4.767  -4.455  11.002  0.00  0.00    -0.139 S 
ATOM     29  CE  MET A   2       5.008  -3.882  12.670  0.00  0.00    +0.069 C 
ENDBRANCH  27  28
ENDBRANCH  26  27
ENDBRANCH  10  26
ENDBRANCH   6  10
ENDBRANCH   5   8
BRANCH   5  30
ATOM     30  CB  ILE A   3       7.667 -11.725   9.178  0.00  0.00    +0.027 C 
ATOM     31  CG2 ILE A   3       7.808 -12.302  10.567  0.00  0.00    +0.002 C 
BRANCH  30  32
ATOM     32  CG1 ILE A   3       6.317 -12.135   8.592  0.00  0.00    +0.002 C 
ATOM     33  CD1 ILE A   3       6.198 -13.633   8.420  0.00  0.00    +0.000 C 
ENDBRANCH  30  32
ENDBRANCH   5  30
ENDBRANCH   1   5
BRANCH   3  34
ATOM     34  CA  GLY A   4       9.166  -9.043   5.865  0.00  0.00    +0.176 C 
BRANCH  34  35
ATOM     35  C   GLY A   4       9.397 -10.051   4.767  0.00  0.00    +0.243 C 
ATOM     36  O   GLY A   4      10.259 -10.911   4.867  0.00  0.00    -0.273 OA
ATOM     37  N   GLY A   5       8.633  -9.925   3.695  0.00  0.00    -0.295 N 
ATOM     38  H   GLY A   5       7.875  -9.213   3.686  0.00  0.00    +0.150 HD
BRANCH  37  39
ATOM     39  CA  GLY A   5       8.839 -10.764   2.536  0.00  0.00    +0.176 C 
BRANCH  39  40
ATOM     40  C   GLY A   5       8.911  -9.981   1.251  0.00  0.00    +0.243 C 
ATOM     41  O   GLY A   5       9.202  -8.781   1.254  0.00  0.00    -0.273 OA
ATOM     42  N   ILE A   6       8.620 -10.662   0.148  0.00  0.00    -0.297 N 
ATOM     43  H   ILE A   6       8.280 -11.641   0.236  0.00  0.00    +0.150 HD
BRANCH  42  44
ATOM     44  CA  ILE A   6       8.762 -10.081  -1.186  0.00  0.00    +0.149 C 
BRANCH  44  45
ATOM     45  C   ILE A   6       7.991  -8.767  -1.393  0.00  0.00    +0.241 C 
ATOM     46  N   GLY A   7       6.711  -8.733  -1.032  0.00  0.00    -0.295 N 
ATOM     47  H   GLY A   7       6.298  -9.545  -0.529  0.00  0.00    +0.150 HD
ATOM     48  O   ILE A   6       8.569  -7.781  -1.853  0.00  0.00    -0.273 OA
BRANCH  46  49
ATOM     49  CA  GLY A   7       5.881  -7.578  -1.330  0.00  0.00    +0.176 C 
BRANCH  49  50
ATOM     50  C   GLY A   7       5.760  -6.574  -0.192  0.00  0.00    +0.243 C 
ATOM     51  N   GLY A   8       6.587  -6.733   0.829  0.00  0.00    -0.296 N 
ATOM     52  H   GLY A   8       7.277  -7.511   0.812  0.00  0.00    +0.150 HD
ATOM     53  O   GLY A   7       4.932  -5.659  -0.231  0.00  0.00    -0.273 OA
BRANCH  51  54
ATOM     54  CA  GLY A   8       6.546  -5.841   1.969  0.00  0.00    +0.163 C 
BRANCH  54  55
ATOM     55  C   GLY A   8       6.377  -6.661   3.227  0.00  0.00    +0.229 C 
ATOM     56  O   GLY A   8       6.903  -7.765   3.321  0.00  0.00    -0.286 OA
ENDBRANCH  54  55
ENDBRANCH  51  54
ENDBRANCH  49  50
ENDBRANCH  46  49
ENDBRANCH  44  45
BRANCH  44  57
ATOM     57  CB  ILE A   6       8.442 -11.121  -2.318  0.00  0.00    +0.027 C 
ATOM     58  CG2 ILE A   6       7.067 -10.964  -2.877  0.00  0.00    +0.002 C 
BRANCH  57  59
ATOM     59  CG1 ILE A   6       9.424 -10.975  -3.459  0.00  0.00    +0.002 C 
ATOM     60  CD1 ILE A   6      10.770 -11.124  -3.002  0.00  0.00    +0.000 C 
ENDBRANCH  57  59
ENDBRANCH  44  57
ENDBRANCH  42  44
ENDBRANCH  39  40
ENDBRANCH  37  39
ENDBRANCH  34  35
ENDBRANCH   3  34
TORSDOF 28
REMARK  Name = ../refined-set-2016/4hla/4hla_pocket.pdb
REMARK  221 active torsions:
REMARK  status: ('A' for Active; 'I' for Inactive)
REMARK    1  A    between atoms: _1  and  _3
REMARK    2  A    between atoms: _3  and  _4
REMARK    3  A    between atoms: _3  and  _6
REMARK    4  A    between atoms: _6  and  _7
REMARK    5  A    between atoms: _7  and  _8
REMARK    6  A    between atoms: _8  and  _9
REMARK    7  A    between atoms: _18  and  _20
REMARK    8  A    between atoms: _20  and  _21
REMARK    9  A    between atoms: _20  and  _23
REMARK   10  A    between atoms: _23  and  _24
REMARK   11  A    between atoms: _27  and  _29
REMARK   12  A    between atoms: _29  and  _30
REMARK   13  A    between atoms: _29  and  _32
REMARK   14  A    between atoms: _32  and  _33
REMARK   15  A    between atoms: _36  and  _38
REMARK   16  A    between atoms: _38  and  _39
REMARK   17  A    between atoms: _38  and  _41
REMARK   18  A    between atoms: _41  and  _42
REMARK   19  A    between atoms: _45  and  _47
REMARK   20  A    between atoms: _47  and  _48
REMARK   21  A    between atoms: _47  and  _50
REMARK   22  A    between atoms: _50  and  _51
REMARK   23  A    between atoms: _54  and  _56
REMARK   24  A    between atoms: _56  and  _57
REMARK   25  A    between atoms: _59  and  _61
REMARK   26  A    between atoms: _61  and  _62
REMARK   27  A    between atoms: _65  and  _67
REMARK   28  A    between atoms: _67  and  _68
REMARK   29  A    between atoms: _67  and  _70
REMARK   30  A    between atoms: _70  and  _71
REMARK   31  A    between atoms: _74  and  _76
REMARK   32  A    between atoms: _76  and  _77
REMARK   33  A    between atoms: _76  and  _79
REMARK   34  A    between atoms: _79  and  _80
REMARK   35  A    between atoms: _83  and  _85
REMARK   36  A    between atoms: _85  and  _86
REMARK   37  A    between atoms: _85  and  _88
REMARK   38  A    between atoms: _88  and  _89
REMARK   39  A    between atoms: _92  and  _94
REMARK   40  A    between atoms: _94  and  _95
REMARK   41  A    between atoms: _94  and  _97
REMARK   42  A    between atoms: _100  and  _102
REMARK   43  A    between atoms: _102  and  _103
REMARK   44  A    between atoms: _102  and  _105
REMARK   45  A    between atoms: _105  and  _106
REMARK   46  A    between atoms: _106  and  _107
REMARK   47  A    between atoms: _107  and  _108
REMARK   48  A    between atoms: _108  and  _109
REMARK   49  A    between atoms: _113  and  _115
REMARK   50  A    between atoms: _115  and  _116
REMARK   51  A    between atoms: _115  and  _118
REMARK   52  A    between atoms: _118  and  _119
REMARK   53  A    between atoms: _119  and  _120
REMARK   54  A    between atoms: _122  and  _124
REMARK   55  A    between atoms: _124  and  _125
REMARK   56  A    between atoms: _124  and  _127
REMARK   57  A    between atoms: _127  and  _128
REMARK   58  A    between atoms: _131  and  _133
REMARK   59  A    between atoms: _133  and  _134
REMARK   60  A    between atoms: _136  and  _138
REMARK   61  A    between atoms: _138  and  _139
REMARK   62  A    between atoms: _141  and  _143
REMARK   63  A    between atoms: _143  and  _144
REMARK   64  A    between atoms: _143  and  _146
REMARK   65  A    between atoms: _146  and  _147
REMARK   66  A    between atoms: _150  and  _152
REMARK   67  A    between atoms: _152  and  _153
REMARK   68  A    between atoms: _155  and  _157
REMARK   69  A    between atoms: _157  and  _158
REMARK   70  A    between atoms: _160  and  _162
REMARK   71  A    between atoms: _162  and  _163
REMARK   72  A    between atoms: _162  and  _165
REMARK   73  A    between atoms: _165  and  _166
REMARK   74  A    between atoms: _169  and  _171
REMARK   75  A    between atoms: _171  and  _172
REMARK   76  A    between atoms: _171  and  _174
REMARK   77  A    between atoms: _174  and  _175
REMARK   78  A    between atoms: _178  and  _180
REMARK   79  A    between atoms: _180  and  _181
REMARK   80  A    between atoms: _180  and  _183
REMARK   81  A    between atoms: _183  and  _184
REMARK   82  A    between atoms: _188  and  _189
REMARK   83  A    between atoms: _194  and  _196
REMARK   84  A    between atoms: _196  and  _197
REMARK   85  A    between atoms: _196  and  _199
REMARK   86  A    between atoms: _202  and  _204
REMARK   87  A    between atoms: _204  and  _205
REMARK   88  A    between atoms: _204  and  _207
REMARK   89  A    between atoms: _207  and  _208
REMARK   90  A    between atoms: _213  and  _215
REMARK   91  A    between atoms: _215  and  _216
REMARK   92  A    between atoms: _215  and  _218
REMARK   93  A    between atoms: _218  and  _219
REMARK   94  A    between atoms: _222  and  _224
REMARK   95  A    between atoms: _224  and  _225
REMARK   96  A    between atoms: _224  and  _227
REMARK   97  A    between atoms: _227  and  _228
REMARK   98  A    between atoms: _231  and  _233
REMARK   99  A    between atoms: _233  and  _234
REMARK  100  A    between atoms: _236  and  _238
REMARK  101  A    between atoms: _238  and  _239
REMARK  102  A    between atoms: _238  and  _241
REMARK  103  A    between atoms: _241  and  _242
REMARK  104  A    between atoms: _242  and  _243
REMARK  105  A    between atoms: _243  and  _244
REMARK  106  A    between atoms: _253  and  _255
REMARK  107  A    between atoms: _255  and  _256
REMARK  108  A    between atoms: _255  and  _258
REMARK  109  A    between atoms: _258  and  _259
REMARK  110  A    between atoms: _264  and  _266
REMARK  111  A    between atoms: _266  and  _267
REMARK  112  A    between atoms: _266  and  _269
REMARK  113  A    between atoms: _269  and  _270
REMARK  114  A    between atoms: _270  and  _271
REMARK  115  A    between atoms: _271  and  _272
REMARK  116  A    between atoms: _281  and  _283
REMARK  117  A    between atoms: _283  and  _284
REMARK  118  A    between atoms: _283  and  _286
REMARK  119  A    between atoms: _286  and  _287
REMARK  120  A    between atoms: _290  and  _292
REMARK  121  A    between atoms: _292  and  _293
REMARK  122  A    between atoms: _292  and  _295
REMARK  123  A    between atoms: _295  and  _296
REMARK  124  A    between atoms: _299  and  _301
REMARK  125  A    between atoms: _301  and  _302
REMARK  126  A    between atoms: _301  and  _304
REMARK  127  A    between atoms: _304  and  _305
REMARK  128  A    between atoms: _308  and  _310
REMARK  129  A    between atoms: _310  and  _311
REMARK  130  A    between atoms: _310  and  _313
REMARK  131  A    between atoms: _313  and  _314
REMARK  132  A    between atoms: _317  and  _319
REMARK  133  A    between atoms: _319  and  _320
REMARK  134  A    between atoms: _322  and  _324
REMARK  135  A    between atoms: _324  and  _325
REMARK  136  A    between atoms: _328  and  _330
REMARK  137  A    between atoms: _330  and  _331
REMARK  138  A    between atoms: _330  and  _333
REMARK  139  A    between atoms: _333  and  _334
REMARK  140  A    between atoms: _337  and  _339
REMARK  141  A    between atoms: _339  and  _340
REMARK  142  A    between atoms: _339  and  _342
REMARK  143  A    between atoms: _342  and  _343
REMARK  144  A    between atoms: _346  and  _348
REMARK  145  A    between atoms: _348  and  _349
REMARK  146  A    between atoms: _348  and  _351
REMARK  147  A    between atoms: _351  and  _352
REMARK  148  A    between atoms: _355  and  _357
REMARK  149  A    between atoms: _357  and  _358
REMARK  150  A    between atoms: _357  and  _360
REMARK  151  A    between atoms: _363  and  _365
REMARK  152  A    between atoms: _365  and  _366
REMARK  153  A    between atoms: _365  and  _368
REMARK  154  A    between atoms: _368  and  _369
REMARK  155  A    between atoms: _369  and  _370
REMARK  156  A    between atoms: _370  and  _371
REMARK  157  A    between atoms: _371  and  _372
REMARK  158  A    between atoms: _376  and  _378
REMARK  159  A    between atoms: _378  and  _379
REMARK  160  A    between atoms: _378  and  _381
REMARK  161  A    between atoms: _381  and  _382
REMARK  162  A    between atoms: _382  and  _383
REMARK  163  A    between atoms: _385  and  _387
REMARK  164  A    between atoms: _387  and  _388
REMARK  165  A    between atoms: _387  and  _390
REMARK  166  A    between atoms: _390  and  _391
REMARK  167  A    between atoms: _394  and  _396
REMARK  168  A    between atoms: _396  and  _397
REMARK  169  A    between atoms: _399  and  _401
REMARK  170  A    between atoms: _401  and  _402
REMARK  171  A    between atoms: _404  and  _406
REMARK  172  A    between atoms: _406  and  _407
REMARK  173  A    between atoms: _406  and  _409
REMARK  174  A    between atoms: _409  and  _410
REMARK  175  A    between atoms: _413  and  _415
REMARK  176  A    between atoms: _415  and  _416
REMARK  177  A    between atoms: _418  and  _420
REMARK  178  A    between atoms: _420  and  _421
REMARK  179  A    between atoms: _423  and  _425
REMARK  180  A    between atoms: _425  and  _426
REMARK  181  A    between atoms: _425  and  _428
REMARK  182  A    between atoms: _428  and  _429
REMARK  183  A    between atoms: _432  and  _434
REMARK  184  A    between atoms: _434  and  _435
REMARK  185  A    between atoms: _434  and  _437
REMARK  186  A    between atoms: _440  and  _442
REMARK  187  A    between atoms: _442  and  _443
REMARK  188  A    between atoms: _442  and  _445
REMARK  189  A    between atoms: _445  and  _446
REMARK  190  A    between atoms: _449  and  _451
REMARK  191  A    between atoms: _451  and  _452
REMARK  192  A    between atoms: _451  and  _454
REMARK  193  A    between atoms: _454  and  _455
REMARK  194  A    between atoms: _459  and  _460
REMARK  195  A    between atoms: _465  and  _467
REMARK  196  A    between atoms: _467  and  _468
REMARK  197  A    between atoms: _467  and  _470
REMARK  198  A    between atoms: _473  and  _475
REMARK  199  A    between atoms: _475  and  _476
REMARK  200  A    between atoms: _475  and  _478
REMARK  201  A    between atoms: _478  and  _479
REMARK  202  A    between atoms: _484  and  _486
REMARK  203  A    between atoms: _486  and  _487
REMARK  204  A    between atoms: _486  and  _489
REMARK  205  A    between atoms: _489  and  _490
REMARK  206  A    between atoms: _493  and  _495
REMARK  207  A    between atoms: _495  and  _496
REMARK  208  A    between atoms: _495  and  _498
REMARK  209  A    between atoms: _498  and  _499
REMARK  210  A    between atoms: _502  and  _504
REMARK  211  A    between atoms: _504  and  _505
REMARK  212  A    between atoms: _507  and  _509
REMARK  213  A    between atoms: _509  and  _510
REMARK  214  A    between atoms: _509  and  _512
REMARK  215  A    between atoms: _512  and  _513
REMARK  216  A    between atoms: _513  and  _514
REMARK  217  A    between atoms: _514  and  _515
REMARK  218  A    between atoms: _524  and  _526
REMARK  219  A    between atoms: _526  and  _527
REMARK  220  A    between atoms: _526  and  _529
REMARK  221  A    between atoms: _529  and  _530
REMARK                            x       y       z     vdW  Elec       q    Type
REMARK                         _______ _______ _______ _____ _____    ______ ____
ROOT
ATOM      1  CA  ILE A   1       2.725  -8.531   7.365  0.00  0.00    +0.133 C 
ENDROOT
BRANCH   1   2
ATOM      2  N   ILE A   1       4.019  -8.191   6.771  0.00  0.00    -0.239 NA
ATOM      3  H   ILE A   1       4.872  -8.703   7.074  0.00  0.00    +0.142 HD
ENDBRANCH   1   2
BRANCH   1   4
ATOM      4  C   ILE A   1       2.834  -8.620   8.881  0.00  0.00    +0.224 C 
ATOM      5  O   ILE A   1       3.893  -8.945   9.426  0.00  0.00    -0.287 OA
ENDBRANCH   1   4
BRANCH   1   6
ATOM      6  CB  ILE A   1       2.152  -9.861   6.828  0.00  0.00    +0.023 C 
ATOM      7  CG2 ILE A   1       1.854  -9.745   5.337  0.00  0.00    +0.002 C 
BRANCH   6   8
ATOM      8  CG1 ILE A   1       3.089 -11.030   7.158  0.00  0.00    +0.002 C 
ATOM      9  CD1 ILE A   1       2.424 -12.412   7.072  0.00  0.00    +0.000 C 
ENDBRANCH   6   8
ENDBRANCH   1   6
TORSDOF 4
REMARK  Name = ../refined-set-2016/4hla/4hla_pocket.pdb
REMARK  221 active torsions:
REMARK  status: ('A' for Active; 'I' for Inactive)
REMARK    1  A    between atoms: _1  and  _3
REMARK    2  A    between atoms: _3  and  _4
REMARK    3  A    between atoms: _3  and  _6
REMARK    4  A    between atoms: _6  and  _7
REMARK    5  A    between atoms: _7  and  _8
REMARK    6  A    between atoms: _8  and  _9
REMARK    7  A    between atoms: _18  and  _20
REMARK    8  A    between atoms: _20  and  _21
REMARK    9  A    between atoms: _20  and  _23
REMARK   10  A    between atoms: _23  and  _24
REMARK   11  A    between atoms: _27  and  _29
REMARK   12  A    between atoms: _29  and  _30
REMARK   13  A    between atoms: _29  and  _32
REMARK   14  A    between atoms: _32  and  _33
REMARK   15  A    between atoms: _36  and  _38
REMARK   16  A    between atoms: _38  and  _39
REMARK   17  A    between atoms: _38  and  _41
REMARK   18  A    between atoms: _41  and  _42
REMARK   19  A    between atoms: _45  and  _47
REMARK   20  A    between atoms: _47  and  _48
REMARK   21  A    between atoms: _47  and  _50
REMARK   22  A    between atoms: _50  and  _51
REMARK   23  A    between atoms: _54  and  _56
REMARK   24  A    between atoms: _56  and  _57
REMARK   25  A    between atoms: _59  and  _61
REMARK   26  A    between atoms: _61  and  _62
REMARK   27  A    between atoms: _65  and  _67
REMARK   28  A    between atoms: _67  and  _68
REMARK   29  A    between atoms: _67  and  _70
REMARK   30  A    between atoms: _70  and  _71
REMARK   31  A    between atoms: _74  and  _76
REMARK   32  A    between atoms: _76  and  _77
REMARK   33  A    between atoms: _76  and  _79
REMARK   34  A    between atoms: _79  and  _80
REMARK   35  A    between atoms: _83  and  _85
REMARK   36  A    between atoms: _85  and  _86
REMARK   37  A    between atoms: _85  and  _88
REMARK   38  A    between atoms: _88  and  _89
REMARK   39  A    between atoms: _92  and  _94
REMARK   40  A    between atoms: _94  and  _95
REMARK   41  A    between atoms: _94  and  _97
REMARK   42  A    between atoms: _100  and  _102
REMARK   43  A    between atoms: _102  and  _103
REMARK   44  A    between atoms: _102  and  _105
REMARK   45  A    between atoms: _105  and  _106
REMARK   46  A    between atoms: _106  and  _107
REMARK   47  A    between atoms: _107  and  _108
REMARK   48  A    between atoms: _108  and  _109
REMARK   49  A    between atoms: _113  and  _115
REMARK   50  A    between atoms: _115  and  _116
REMARK   51  A    between atoms: _115  and  _118
REMARK   52  A    between atoms: _118  and  _119
REMARK   53  A    between atoms: _119  and  _120
REMARK   54  A    between atoms: _122  and  _124
REMARK   55  A    between atoms: _124  and  _125
REMARK   56  A    between atoms: _124  and  _127
REMARK   57  A    between atoms: _127  and  _128
REMARK   58  A    between atoms: _131  and  _133
REMARK   59  A    between atoms: _133  and  _134
REMARK   60  A    between atoms: _136  and  _138
REMARK   61  A    between atoms: _138  and  _139
REMARK   62  A    between atoms: _141  and  _143
REMARK   63  A    between atoms: _143  and  _144
REMARK   64  A    between atoms: _143  and  _146
REMARK   65  A    between atoms: _146  and  _147
REMARK   66  A    between atoms: _150  and  _152
REMARK   67  A    between atoms: _152  and  _153
REMARK   68  A    between atoms: _155  and  _157
REMARK   69  A    between atoms: _157  and  _158
REMARK   70  A    between atoms: _160  and  _162
REMARK   71  A    between atoms: _162  and  _163
REMARK   72  A    between atoms: _162  and  _165
REMARK   73  A    between atoms: _165  and  _166
REMARK   74  A    between atoms: _169  and  _171
REMARK   75  A    between atoms: _171  and  _172
REMARK   76  A    between atoms: _171  and  _174
REMARK   77  A    between atoms: _174  and  _175
REMARK   78  A    between atoms: _178  and  _180
REMARK   79  A    between atoms: _180  and  _181
REMARK   80  A    between atoms: _180  and  _183
REMARK   81  A    between atoms: _183  and  _184
REMARK   82  A    between atoms: _188  and  _189
REMARK   83  A    between atoms: _194  and  _196
REMARK   84  A    between atoms: _196  and  _197
REMARK   85  A    between atoms: _196  and  _199
REMARK   86  A    between atoms: _202  and  _204
REMARK   87  A    between atoms: _204  and  _205
REMARK   88  A    between atoms: _204  and  _207
REMARK   89  A    between atoms: _207  and  _208
REMARK   90  A    between atoms: _213  and  _215
REMARK   91  A    between atoms: _215  and  _216
REMARK   92  A    between atoms: _215  and  _218
REMARK   93  A    between atoms: _218  and  _219
REMARK   94  A    between atoms: _222  and  _224
REMARK   95  A    between atoms: _224  and  _225
REMARK   96  A    between atoms: _224  and  _227
REMARK   97  A    between atoms: _227  and  _228
REMARK   98  A    between atoms: _231  and  _233
REMARK   99  A    between atoms: _233  and  _234
REMARK  100  A    between atoms: _236  and  _238
REMARK  101  A    between atoms: _238  and  _239
REMARK  102  A    between atoms: _238  and  _241
REMARK  103  A    between atoms: _241  and  _242
REMARK  104  A    between atoms: _242  and  _243
REMARK  105  A    between atoms: _243  and  _244
REMARK  106  A    between atoms: _253  and  _255
REMARK  107  A    between atoms: _255  and  _256
REMARK  108  A    between atoms: _255  and  _258
REMARK  109  A    between atoms: _258  and  _259
REMARK  110  A    between atoms: _264  and  _266
REMARK  111  A    between atoms: _266  and  _267
REMARK  112  A    between atoms: _266  and  _269
REMARK  113  A    between atoms: _269  and  _270
REMARK  114  A    between atoms: _270  and  _271
REMARK  115  A    between atoms: _271  and  _272
REMARK  116  A    between atoms: _281  and  _283
REMARK  117  A    between atoms: _283  and  _284
REMARK  118  A    between atoms: _283  and  _286
REMARK  119  A    between atoms: _286  and  _287
REMARK  120  A    between atoms: _290  and  _292
REMARK  121  A    between atoms: _292  and  _293
REMARK  122  A    between atoms: _292  and  _295
REMARK  123  A    between atoms: _295  and  _296
REMARK  124  A    between atoms: _299  and  _301
REMARK  125  A    between atoms: _301  and  _302
REMARK  126  A    between atoms: _301  and  _304
REMARK  127  A    between atoms: _304  and  _305
REMARK  128  A    between atoms: _308  and  _310
REMARK  129  A    between atoms: _310  and  _311
REMARK  130  A    between atoms: _310  and  _313
REMARK  131  A    between atoms: _313  and  _314
REMARK  132  A    between atoms: _317  and  _319
REMARK  133  A    between atoms: _319  and  _320
REMARK  134  A    between atoms: _322  and  _324
REMARK  135  A    between atoms: _324  and  _325
REMARK  136  A    between atoms: _328  and  _330
REMARK  137  A    between atoms: _330  and  _331
REMARK  138  A    between atoms: _330  and  _333
REMARK  139  A    between atoms: _333  and  _334
REMARK  140  A    between atoms: _337  and  _339
REMARK  141  A    between atoms: _339  and  _340
REMARK  142  A    between atoms: _339  and  _342
REMARK  143  A    between atoms: _342  and  _343
REMARK  144  A    between atoms: _346  and  _348
REMARK  145  A    between atoms: _348  and  _349
REMARK  146  A    between atoms: _348  and  _351
REMARK  147  A    between atoms: _351  and  _352
REMARK  148  A    between atoms: _355  and  _357
REMARK  149  A    between atoms: _357  and  _358
REMARK  150  A    between atoms: _357  and  _360
REMARK  151  A    between atoms: _363  and  _365
REMARK  152  A    between atoms: _365  and  _366
REMARK  153  A    between atoms: _365  and  _368
REMARK  154  A    between atoms: _368  and  _369
REMARK  155  A    between atoms: _369  and  _370
REMARK  156  A    between atoms: _370  and  _371
REMARK  157  A    between atoms: _371  and  _372
REMARK  158  A    between atoms: _376  and  _378
REMARK  159  A    between atoms: _378  and  _379
REMARK  160  A    between atoms: _378  and  _381
REMARK  161  A    between atoms: _381  and  _382
REMARK  162  A    between atoms: _382  and  _383
REMARK  163  A    between atoms: _385  and  _387
REMARK  164  A    between atoms: _387  and  _388
REMARK  165  A    between atoms: _387  and  _390
REMARK  166  A    between atoms: _390  and  _391
REMARK  167  A    between atoms: _394  and  _396
REMARK  168  A    between atoms: _396  and  _397
REMARK  169  A    between atoms: _399  and  _401
REMARK  170  A    between atoms: _401  and  _402
REMARK  171  A    between atoms: _404  and  _406
REMARK  172  A    between atoms: _406  and  _407
REMARK  173  A    between atoms: _406  and  _409
REMARK  174  A    between atoms: _409  and  _410
REMARK  175  A    between atoms: _413  and  _415
REMARK  176  A    between atoms: _415  and  _416
REMARK  177  A    between atoms: _418  and  _420
REMARK  178  A    between atoms: _420  and  _421
REMARK  179  A    between atoms: _423  and  _425
REMARK  180  A    between atoms: _425  and  _426
REMARK  181  A    between atoms: _425  and  _428
REMARK  182  A    between atoms: _428  and  _429
REMARK  183  A    between atoms: _432  and  _434
REMARK  184  A    between atoms: _434  and  _435
REMARK  185  A    between atoms: _434  and  _437
REMARK  186  A    between atoms: _440  and  _442
REMARK  187  A    between atoms: _442  and  _443
REMARK  188  A    between atoms: _442  and  _445
REMARK  189  A    between atoms: _445  and  _446
REMARK  190  A    between atoms: _449  and  _451
REMARK  191  A    between atoms: _451  and  _452
REMARK  192  A    between atoms: _451  and  _454
REMARK  193  A    between atoms: _454  and  _455
REMARK  194  A    between atoms: _459  and  _460
REMARK  195  A    between atoms: _465  and  _467
REMARK  196  A    between atoms: _467  and  _468
REMARK  197  A    between atoms: _467  and  _470
REMARK  198  A    between atoms: _473  and  _475
REMARK  199  A    between atoms: _475  and  _476
REMARK  200  A    between atoms: _475  and  _478
REMARK  201  A    between atoms: _478  and  _479
REMARK  202  A    between atoms: _484  and  _486
REMARK  203  A    between atoms: _486  and  _487
REMARK  204  A    between atoms: _486  and  _489
REMARK  205  A    between atoms: _489  and  _490
REMARK  206  A    between atoms: _493  and  _495
REMARK  207  A    between atoms: _495  and  _496
REMARK  208  A    between atoms: _495  and  _498
REMARK  209  A    between atoms: _498  and  _499
REMARK  210  A    between atoms: _502  and  _504
REMARK  211  A    between atoms: _504  and  _505
REMARK  212  A    between atoms: _507  and  _509
REMARK  213  A    between atoms: _509  and  _510
REMARK  214  A    between atoms: _509  and  _512
REMARK  215  A    between atoms: _512  and  _513
REMARK  216  A    between atoms: _513  and  _514
REMARK  217  A    between atoms: _514  and  _515
REMARK  218  A    between atoms: _524  and  _526
REMARK  219  A    between atoms: _526  and  _527
REMARK  220  A    between atoms: _526  and  _529
REMARK  221  A    between atoms: _529  and  _530
REMARK                            x       y       z     vdW  Elec       q    Type
REMARK                         _______ _______ _______ _____ _____    ______ ____
ROOT
ATOM      1  CA  VAL A   1       1.777 -11.854  12.712  0.00  0.00    +0.133 C 
ENDROOT
BRANCH   1   2
ATOM      2  CB  VAL A   1       2.849 -12.841  12.172  0.00  0.00    +0.023 C 
ATOM      3  CG2 VAL A   1       4.194 -12.576  12.813  0.00  0.00    +0.002 C 
ATOM      4  CG1 VAL A   1       2.946 -12.773  10.646  0.00  0.00    +0.002 C 
ENDBRANCH   1   2
BRANCH   1   5
ATOM      5  N   VAL A   1       2.047 -10.472  12.300  0.00  0.00    -0.239 NA
ATOM      6  H   VAL A   1       2.826  -9.950  12.748  0.00  0.00    +0.142 HD
ENDBRANCH   1   5
BRANCH   1   7
ATOM      7  C   VAL A   1       1.721 -11.990  14.237  0.00  0.00    +0.224 C 
ATOM      8  O   VAL A   1       2.186 -11.110  14.957  0.00  0.00    -0.287 OA
ENDBRANCH   1   7
TORSDOF 3
REMARK  Name = ../refined-set-2016/4hla/4hla_pocket.pdb
REMARK  221 active torsions:
REMARK  status: ('A' for Active; 'I' for Inactive)
REMARK    1  A    between atoms: _1  and  _3
REMARK    2  A    between atoms: _3  and  _4
REMARK    3  A    between atoms: _3  and  _6
REMARK    4  A    between atoms: _6  and  _7
REMARK    5  A    between atoms: _7  and  _8
REMARK    6  A    between atoms: _8  and  _9
REMARK    7  A    between atoms: _18  and  _20
REMARK    8  A    between atoms: _20  and  _21
REMARK    9  A    between atoms: _20  and  _23
REMARK   10  A    between atoms: _23  and  _24
REMARK   11  A    between atoms: _27  and  _29
REMARK   12  A    between atoms: _29  and  _30
REMARK   13  A    between atoms: _29  and  _32
REMARK   14  A    between atoms: _32  and  _33
REMARK   15  A    between atoms: _36  and  _38
REMARK   16  A    between atoms: _38  and  _39
REMARK   17  A    between atoms: _38  and  _41
REMARK   18  A    between atoms: _41  and  _42
REMARK   19  A    between atoms: _45  and  _47
REMARK   20  A    between atoms: _47  and  _48
REMARK   21  A    between atoms: _47  and  _50
REMARK   22  A    between atoms: _50  and  _51
REMARK   23  A    between atoms: _54  and  _56
REMARK   24  A    between atoms: _56  and  _57
REMARK   25  A    between atoms: _59  and  _61
REMARK   26  A    between atoms: _61  and  _62
REMARK   27  A    between atoms: _65  and  _67
REMARK   28  A    between atoms: _67  and  _68
REMARK   29  A    between atoms: _67  and  _70
REMARK   30  A    between atoms: _70  and  _71
REMARK   31  A    between atoms: _74  and  _76
REMARK   32  A    between atoms: _76  and  _77
REMARK   33  A    between atoms: _76  and  _79
REMARK   34  A    between atoms: _79  and  _80
REMARK   35  A    between atoms: _83  and  _85
REMARK   36  A    between atoms: _85  and  _86
REMARK   37  A    between atoms: _85  and  _88
REMARK   38  A    between atoms: _88  and  _89
REMARK   39  A    between atoms: _92  and  _94
REMARK   40  A    between atoms: _94  and  _95
REMARK   41  A    between atoms: _94  and  _97
REMARK   42  A    between atoms: _100  and  _102
REMARK   43  A    between atoms: _102  and  _103
REMARK   44  A    between atoms: _102  and  _105
REMARK   45  A    between atoms: _105  and  _106
REMARK   46  A    between atoms: _106  and  _107
REMARK   47  A    between atoms: _107  and  _108
REMARK   48  A    between atoms: _108  and  _109
REMARK   49  A    between atoms: _113  and  _115
REMARK   50  A    between atoms: _115  and  _116
REMARK   51  A    between atoms: _115  and  _118
REMARK   52  A    between atoms: _118  and  _119
REMARK   53  A    between atoms: _119  and  _120
REMARK   54  A    between atoms: _122  and  _124
REMARK   55  A    between atoms: _124  and  _125
REMARK   56  A    between atoms: _124  and  _127
REMARK   57  A    between atoms: _127  and  _128
REMARK   58  A    between atoms: _131  and  _133
REMARK   59  A    between atoms: _133  and  _134
REMARK   60  A    between atoms: _136  and  _138
REMARK   61  A    between atoms: _138  and  _139
REMARK   62  A    between atoms: _141  and  _143
REMARK   63  A    between atoms: _143  and  _144
REMARK   64  A    between atoms: _143  and  _146
REMARK   65  A    between atoms: _146  and  _147
REMARK   66  A    between atoms: _150  and  _152
REMARK   67  A    between atoms: _152  and  _153
REMARK   68  A    between atoms: _155  and  _157
REMARK   69  A    between atoms: _157  and  _158
REMARK   70  A    between atoms: _160  and  _162
REMARK   71  A    between atoms: _162  and  _163
REMARK   72  A    between atoms: _162  and  _165
REMARK   73  A    between atoms: _165  and  _166
REMARK   74  A    between atoms: _169  and  _171
REMARK   75  A    between atoms: _171  and  _172
REMARK   76  A    between atoms: _171  and  _174
REMARK   77  A    between atoms: _174  and  _175
REMARK   78  A    between atoms: _178  and  _180
REMARK   79  A    between atoms: _180  and  _181
REMARK   80  A    between atoms: _180  and  _183
REMARK   81  A    between atoms: _183  and  _184
REMARK   82  A    between atoms: _188  and  _189
REMARK   83  A    between atoms: _194  and  _196
REMARK   84  A    between atoms: _196  and  _197
REMARK   85  A    between atoms: _196  and  _199
REMARK   86  A    between atoms: _202  and  _204
REMARK   87  A    between atoms: _204  and  _205
REMARK   88  A    between atoms: _204  and  _207
REMARK   89  A    between atoms: _207  and  _208
REMARK   90  A    between atoms: _213  and  _215
REMARK   91  A    between atoms: _215  and  _216
REMARK   92  A    between atoms: _215  and  _218
REMARK   93  A    between atoms: _218  and  _219
REMARK   94  A    between atoms: _222  and  _224
REMARK   95  A    between atoms: _224  and  _225
REMARK   96  A    between atoms: _224  and  _227
REMARK   97  A    between atoms: _227  and  _228
REMARK   98  A    between atoms: _231  and  _233
REMARK   99  A    between atoms: _233  and  _234
REMARK  100  A    between atoms: _236  and  _238
REMARK  101  A    between atoms: _238  and  _239
REMARK  102  A    between atoms: _238  and  _241
REMARK  103  A    between atoms: _241  and  _242
REMARK  104  A    between atoms: _242  and  _243
REMARK  105  A    between atoms: _243  and  _244
REMARK  106  A    between atoms: _253  and  _255
REMARK  107  A    between atoms: _255  and  _256
REMARK  108  A    between atoms: _255  and  _258
REMARK  109  A    between atoms: _258  and  _259
REMARK  110  A    between atoms: _264  and  _266
REMARK  111  A    between atoms: _266  and  _267
REMARK  112  A    between atoms: _266  and  _269
REMARK  113  A    between atoms: _269  and  _270
REMARK  114  A    between atoms: _270  and  _271
REMARK  115  A    between atoms: _271  and  _272
REMARK  116  A    between atoms: _281  and  _283
REMARK  117  A    between atoms: _283  and  _284
REMARK  118  A    between atoms: _283  and  _286
REMARK  119  A    between atoms: _286  and  _287
REMARK  120  A    between atoms: _290  and  _292
REMARK  121  A    between atoms: _292  and  _293
REMARK  122  A    between atoms: _292  and  _295
REMARK  123  A    between atoms: _295  and  _296
REMARK  124  A    between atoms: _299  and  _301
REMARK  125  A    between atoms: _301  and  _302
REMARK  126  A    between atoms: _301  and  _304
REMARK  127  A    between atoms: _304  and  _305
REMARK  128  A    between atoms: _308  and  _310
REMARK  129  A    between atoms: _310  and  _311
REMARK  130  A    between atoms: _310  and  _313
REMARK  131  A    between atoms: _313  and  _314
REMARK  132  A    between atoms: _317  and  _319
REMARK  133  A    between atoms: _319  and  _320
REMARK  134  A    between atoms: _322  and  _324
REMARK  135  A    between atoms: _324  and  _325
REMARK  136  A    between atoms: _328  and  _330
REMARK  137  A    between atoms: _330  and  _331
REMARK  138  A    between atoms: _330  and  _333
REMARK  139  A    between atoms: _333  and  _334
REMARK  140  A    between atoms: _337  and  _339
REMARK  141  A    between atoms: _339  and  _340
REMARK  142  A    between atoms: _339  and  _342
REMARK  143  A    between atoms: _342  and  _343
REMARK  144  A    between atoms: _346  and  _348
REMARK  145  A    between atoms: _348  and  _349
REMARK  146  A    between atoms: _348  and  _351
REMARK  147  A    between atoms: _351  and  _352
REMARK  148  A    between atoms: _355  and  _357
REMARK  149  A    between atoms: _357  and  _358
REMARK  150  A    between atoms: _357  and  _360
REMARK  151  A    between atoms: _363  and  _365
REMARK  152  A    between atoms: _365  and  _366
REMARK  153  A    between atoms: _365  and  _368
REMARK  154  A    between atoms: _368  and  _369
REMARK  155  A    between atoms: _369  and  _370
REMARK  156  A    between atoms: _370  and  _371
REMARK  157  A    between atoms: _371  and  _372
REMARK  158  A    between atoms: _376  and  _378
REMARK  159  A    between atoms: _378  and  _379
REMARK  160  A    between atoms: _378  and  _381
REMARK  161  A    between atoms: _381  and  _382
REMARK  162  A    between atoms: _382  and  _383
REMARK  163  A    between atoms: _385  and  _387
REMARK  164  A    between atoms: _387  and  _388
REMARK  165  A    between atoms: _387  and  _390
REMARK  166  A    between atoms: _390  and  _391
REMARK  167  A    between atoms: _394  and  _396
REMARK  168  A    between atoms: _396  and  _397
REMARK  169  A    between atoms: _399  and  _401
REMARK  170  A    between atoms: _401  and  _402
REMARK  171  A    between atoms: _404  and  _406
REMARK  172  A    between atoms: _406  and  _407
REMARK  173  A    between atoms: _406  and  _409
REMARK  174  A    between atoms: _409  and  _410
REMARK  175  A    between atoms: _413  and  _415
REMARK  176  A    between atoms: _415  and  _416
REMARK  177  A    between atoms: _418  and  _420
REMARK  178  A    between atoms: _420  and  _421
REMARK  179  A    between atoms: _423  and  _425
REMARK  180  A    between atoms: _425  and  _426
REMARK  181  A    between atoms: _425  and  _428
REMARK  182  A    between atoms: _428  and  _429
REMARK  183  A    between atoms: _432  and  _434
REMARK  184  A    between atoms: _434  and  _435
REMARK  185  A    between atoms: _434  and  _437
REMARK  186  A    between atoms: _440  and  _442
REMARK  187  A    between atoms: _442  and  _443
REMARK  188  A    between atoms: _442  and  _445
REMARK  189  A    between atoms: _445  and  _446
REMARK  190  A    between atoms: _449  and  _451
REMARK  191  A    between atoms: _451  and  _452
REMARK  192  A    between atoms: _451  and  _454
REMARK  193  A    between atoms: _454  and  _455
REMARK  194  A    between atoms: _459  and  _460
REMARK  195  A    between atoms: _465  and  _467
REMARK  196  A    between atoms: _467  and  _468
REMARK  197  A    between atoms: _467  and  _470
REMARK  198  A    between atoms: _473  and  _475
REMARK  199  A    between atoms: _475  and  _476
REMARK  200  A    between atoms: _475  and  _478
REMARK  201  A    between atoms: _478  and  _479
REMARK  202  A    between atoms: _484  and  _486
REMARK  203  A    between atoms: _486  and  _487
REMARK  204  A    between atoms: _486  and  _489
REMARK  205  A    between atoms: _489  and  _490
REMARK  206  A    between atoms: _493  and  _495
REMARK  207  A    between atoms: _495  and  _496
REMARK  208  A    between atoms: _495  and  _498
REMARK  209  A    between atoms: _498  and  _499
REMARK  210  A    between atoms: _502  and  _504
REMARK  211  A    between atoms: _504  and  _505
REMARK  212  A    between atoms: _507  and  _509
REMARK  213  A    between atoms: _509  and  _510
REMARK  214  A    between atoms: _509  and  _512
REMARK  215  A    between atoms: _512  and  _513
REMARK  216  A    between atoms: _513  and  _514
REMARK  217  A    between atoms: _514  and  _515
REMARK  218  A    between atoms: _524  and  _526
REMARK  219  A    between atoms: _526  and  _527
REMARK  220  A    between atoms: _526  and  _529
REMARK  221  A    between atoms: _529  and  _530
REMARK                            x       y       z     vdW  Elec       q    Type
REMARK                         _______ _______ _______ _____ _____    ______ ____
ROOT
ATOM      1  CA  LEU A   1       4.032 -17.251  13.437  0.00  0.00    +0.133 C 
ENDROOT
BRANCH   1   2
ATOM      2  N   LEU A   1       4.697 -18.519  13.650  0.00  0.00    -0.239 NA
ATOM      3  H   LEU A   1       5.235 -18.948  12.870  0.00  0.00    +0.142 HD
ENDBRANCH   1   2
BRANCH   1   4
ATOM      4  C   LEU A   1       2.732 -17.507  12.699  0.00  0.00    +0.224 C 
ATOM      5  O   LEU A   1       2.677 -18.346  11.809  0.00  0.00    -0.287 OA
ENDBRANCH   1   4
BRANCH   1   6
ATOM      6  CB  LEU A   1       4.923 -16.328  12.616  0.00  0.00    +0.025 C 
BRANCH   6   7
ATOM      7  CG  LEU A   1       6.362 -16.272  13.112  0.00  0.00    +0.002 C 
ATOM      8  CD2 LEU A   1       6.415 -15.792  14.565  0.00  0.00    +0.000 C 
ATOM      9  CD1 LEU A   1       7.180 -15.376  12.193  0.00  0.00    +0.000 C 
ENDBRANCH   6   7
ENDBRANCH   1   6
TORSDOF 4
REMARK  Name = ../refined-set-2016/4hla/4hla_pocket.pdb
REMARK  221 active torsions:
REMARK  status: ('A' for Active; 'I' for Inactive)
REMARK    1  A    between atoms: _1  and  _3
REMARK    2  A    between atoms: _3  and  _4
REMARK    3  A    between atoms: _3  and  _6
REMARK    4  A    between atoms: _6  and  _7
REMARK    5  A    between atoms: _7  and  _8
REMARK    6  A    between atoms: _8  and  _9
REMARK    7  A    between atoms: _18  and  _20
REMARK    8  A    between atoms: _20  and  _21
REMARK    9  A    between atoms: _20  and  _23
REMARK   10  A    between atoms: _23  and  _24
REMARK   11  A    between atoms: _27  and  _29
REMARK   12  A    between atoms: _29  and  _30
REMARK   13  A    between atoms: _29  and  _32
REMARK   14  A    between atoms: _32  and  _33
REMARK   15  A    between atoms: _36  and  _38
REMARK   16  A    between atoms: _38  and  _39
REMARK   17  A    between atoms: _38  and  _41
REMARK   18  A    between atoms: _41  and  _42
REMARK   19  A    between atoms: _45  and  _47
REMARK   20  A    between atoms: _47  and  _48
REMARK   21  A    between atoms: _47  and  _50
REMARK   22  A    between atoms: _50  and  _51
REMARK   23  A    between atoms: _54  and  _56
REMARK   24  A    between atoms: _56  and  _57
REMARK   25  A    between atoms: _59  and  _61
REMARK   26  A    between atoms: _61  and  _62
REMARK   27  A    between atoms: _65  and  _67
REMARK   28  A    between atoms: _67  and  _68
REMARK   29  A    between atoms: _67  and  _70
REMARK   30  A    between atoms: _70  and  _71
REMARK   31  A    between atoms: _74  and  _76
REMARK   32  A    between atoms: _76  and  _77
REMARK   33  A    between atoms: _76  and  _79
REMARK   34  A    between atoms: _79  and  _80
REMARK   35  A    between atoms: _83  and  _85
REMARK   36  A    between atoms: _85  and  _86
REMARK   37  A    between atoms: _85  and  _88
REMARK   38  A    between atoms: _88  and  _89
REMARK   39  A    between atoms: _92  and  _94
REMARK   40  A    between atoms: _94  and  _95
REMARK   41  A    between atoms: _94  and  _97
REMARK   42  A    between atoms: _100  and  _102
REMARK   43  A    between atoms: _102  and  _103
REMARK   44  A    between atoms: _102  and  _105
REMARK   45  A    between atoms: _105  and  _106
REMARK   46  A    between atoms: _106  and  _107
REMARK   47  A    between atoms: _107  and  _108
REMARK   48  A    between atoms: _108  and  _109
REMARK   49  A    between atoms: _113  and  _115
REMARK   50  A    between atoms: _115  and  _116
REMARK   51  A    between atoms: _115  and  _118
REMARK   52  A    between atoms: _118  and  _119
REMARK   53  A    between atoms: _119  and  _120
REMARK   54  A    between atoms: _122  and  _124
REMARK   55  A    between atoms: _124  and  _125
REMARK   56  A    between atoms: _124  and  _127
REMARK   57  A    between atoms: _127  and  _128
REMARK   58  A    between atoms: _131  and  _133
REMARK   59  A    between atoms: _133  and  _134
REMARK   60  A    between atoms: _136  and  _138
REMARK   61  A    between atoms: _138  and  _139
REMARK   62  A    between atoms: _141  and  _143
REMARK   63  A    between atoms: _143  and  _144
REMARK   64  A    between atoms: _143  and  _146
REMARK   65  A    between atoms: _146  and  _147
REMARK   66  A    between atoms: _150  and  _152
REMARK   67  A    between atoms: _152  and  _153
REMARK   68  A    between atoms: _155  and  _157
REMARK   69  A    between atoms: _157  and  _158
REMARK   70  A    between atoms: _160  and  _162
REMARK   71  A    between atoms: _162  and  _163
REMARK   72  A    between atoms: _162  and  _165
REMARK   73  A    between atoms: _165  and  _166
REMARK   74  A    between atoms: _169  and  _171
REMARK   75  A    between atoms: _171  and  _172
REMARK   76  A    between atoms: _171  and  _174
REMARK   77  A    between atoms: _174  and  _175
REMARK   78  A    between atoms: _178  and  _180
REMARK   79  A    between atoms: _180  and  _181
REMARK   80  A    between atoms: _180  and  _183
REMARK   81  A    between atoms: _183  and  _184
REMARK   82  A    between atoms: _188  and  _189
REMARK   83  A    between atoms: _194  and  _196
REMARK   84  A    between atoms: _196  and  _197
REMARK   85  A    between atoms: _196  and  _199
REMARK   86  A    between atoms: _202  and  _204
REMARK   87  A    between atoms: _204  and  _205
REMARK   88  A    between atoms: _204  and  _207
REMARK   89  A    between atoms: _207  and  _208
REMARK   90  A    between atoms: _213  and  _215
REMARK   91  A    between atoms: _215  and  _216
REMARK   92  A    between atoms: _215  and  _218
REMARK   93  A    between atoms: _218  and  _219
REMARK   94  A    between atoms: _222  and  _224
REMARK   95  A    between atoms: _224  and  _225
REMARK   96  A    between atoms: _224  and  _227
REMARK   97  A    between atoms: _227  and  _228
REMARK   98  A    between atoms: _231  and  _233
REMARK   99  A    between atoms: _233  and  _234
REMARK  100  A    between atoms: _236  and  _238
REMARK  101  A    between atoms: _238  and  _239
REMARK  102  A    between atoms: _238  and  _241
REMARK  103  A    between atoms: _241  and  _242
REMARK  104  A    between atoms: _242  and  _243
REMARK  105  A    between atoms: _243  and  _244
REMARK  106  A    between atoms: _253  and  _255
REMARK  107  A    between atoms: _255  and  _256
REMARK  108  A    between atoms: _255  and  _258
REMARK  109  A    between atoms: _258  and  _259
REMARK  110  A    between atoms: _264  and  _266
REMARK  111  A    between atoms: _266  and  _267
REMARK  112  A    between atoms: _266  and  _269
REMARK  113  A    between atoms: _269  and  _270
REMARK  114  A    between atoms: _270  and  _271
REMARK  115  A    between atoms: _271  and  _272
REMARK  116  A    between atoms: _281  and  _283
REMARK  117  A    between atoms: _283  and  _284
REMARK  118  A    between atoms: _283  and  _286
REMARK  119  A    between atoms: _286  and  _287
REMARK  120  A    between atoms: _290  and  _292
REMARK  121  A    between atoms: _292  and  _293
REMARK  122  A    between atoms: _292  and  _295
REMARK  123  A    between atoms: _295  and  _296
REMARK  124  A    between atoms: _299  and  _301
REMARK  125  A    between atoms: _301  and  _302
REMARK  126  A    between atoms: _301  and  _304
REMARK  127  A    between atoms: _304  and  _305
REMARK  128  A    between atoms: _308  and  _310
REMARK  129  A    between atoms: _310  and  _311
REMARK  130  A    between atoms: _310  and  _313
REMARK  131  A    between atoms: _313  and  _314
REMARK  132  A    between atoms: _317  and  _319
REMARK  133  A    between atoms: _319  and  _320
REMARK  134  A    between atoms: _322  and  _324
REMARK  135  A    between atoms: _324  and  _325
REMARK  136  A    between atoms: _328  and  _330
REMARK  137  A    between atoms: _330  and  _331
REMARK  138  A    between atoms: _330  and  _333
REMARK  139  A    between atoms: _333  and  _334
REMARK  140  A    between atoms: _337  and  _339
REMARK  141  A    between atoms: _339  and  _340
REMARK  142  A    between atoms: _339  and  _342
REMARK  143  A    between atoms: _342  and  _343
REMARK  144  A    between atoms: _346  and  _348
REMARK  145  A    between atoms: _348  and  _349
REMARK  146  A    between atoms: _348  and  _351
REMARK  147  A    between atoms: _351  and  _352
REMARK  148  A    between atoms: _355  and  _357
REMARK  149  A    between atoms: _357  and  _358
REMARK  150  A    between atoms: _357  and  _360
REMARK  151  A    between atoms: _363  and  _365
REMARK  152  A    between atoms: _365  and  _366
REMARK  153  A    between atoms: _365  and  _368
REMARK  154  A    between atoms: _368  and  _369
REMARK  155  A    between atoms: _369  and  _370
REMARK  156  A    between atoms: _370  and  _371
REMARK  157  A    between atoms: _371  and  _372
REMARK  158  A    between atoms: _376  and  _378
REMARK  159  A    between atoms: _378  and  _379
REMARK  160  A    between atoms: _378  and  _381
REMARK  161  A    between atoms: _381  and  _382
REMARK  162  A    between atoms: _382  and  _383
REMARK  163  A    between atoms: _385  and  _387
REMARK  164  A    between atoms: _387  and  _388
REMARK  165  A    between atoms: _387  and  _390
REMARK  166  A    between atoms: _390  and  _391
REMARK  167  A    between atoms: _394  and  _396
REMARK  168  A    between atoms: _396  and  _397
REMARK  169  A    between atoms: _399  and  _401
REMARK  170  A    between atoms: _401  and  _402
REMARK  171  A    between atoms: _404  and  _406
REMARK  172  A    between atoms: _406  and  _407
REMARK  173  A    between atoms: _406  and  _409
REMARK  174  A    between atoms: _409  and  _410
REMARK  175  A    between atoms: _413  and  _415
REMARK  176  A    between atoms: _415  and  _416
REMARK  177  A    between atoms: _418  and  _420
REMARK  178  A    between atoms: _420  and  _421
REMARK  179  A    between atoms: _423  and  _425
REMARK  180  A    between atoms: _425  and  _426
REMARK  181  A    between atoms: _425  and  _428
REMARK  182  A    between atoms: _428  and  _429
REMARK  183  A    between atoms: _432  and  _434
REMARK  184  A    between atoms: _434  and  _435
REMARK  185  A    between atoms: _434  and  _437
REMARK  186  A    between atoms: _440  and  _442
REMARK  187  A    between atoms: _442  and  _443
REMARK  188  A    between atoms: _442  and  _445
REMARK  189  A    between atoms: _445  and  _446
REMARK  190  A    between atoms: _449  and  _451
REMARK  191  A    between atoms: _451  and  _452
REMARK  192  A    between atoms: _451  and  _454
REMARK  193  A    between atoms: _454  and  _455
REMARK  194  A    between atoms: _459  and  _460
REMARK  195  A    between atoms: _465  and  _467
REMARK  196  A    between atoms: _467  and  _468
REMARK  197  A    between atoms: _467  and  _470
REMARK  198  A    between atoms: _473  and  _475
REMARK  199  A    between atoms: _475  and  _476
REMARK  200  A    between atoms: _475  and  _478
REMARK  201  A    between atoms: _478  and  _479
REMARK  202  A    between atoms: _484  and  _486
REMARK  203  A    between atoms: _486  and  _487
REMARK  204  A    between atoms: _486  and  _489
REMARK  205  A    between atoms: _489  and  _490
REMARK  206  A    between atoms: _493  and  _495
REMARK  207  A    between atoms: _495  and  _496
REMARK  208  A    between atoms: _495  and  _498
REMARK  209  A    between atoms: _498  and  _499
REMARK  210  A    between atoms: _502  and  _504
REMARK  211  A    between atoms: _504  and  _505
REMARK  212  A    between atoms: _507  and  _509
REMARK  213  A    between atoms: _509  and  _510
REMARK  214  A    between atoms: _509  and  _512
REMARK  215  A    between atoms: _512  and  _513
REMARK  216  A    between atoms: _513  and  _514
REMARK  217  A    between atoms: _514  and  _515
REMARK  218  A    between atoms: _524  and  _526
REMARK  219  A    between atoms: _526  and  _527
REMARK  220  A    between atoms: _526  and  _529
REMARK  221  A    between atoms: _529  and  _530
REMARK                            x       y       z     vdW  Elec       q    Type
REMARK                         _______ _______ _______ _____ _____    ______ ____
ROOT
ATOM      1  C   ILE A   5       6.136 -22.667   6.456  0.00  0.00    +0.241 C 
ATOM      2  O   ILE A   5       6.061 -22.110   7.550  0.00  0.00    -0.273 OA
ATOM      3  N   ILE A   6       6.823 -23.795   6.272  0.00  0.00    -0.297 N 
ATOM      4  H   ILE A   6       6.695 -24.328   5.388  0.00  0.00    +0.150 HD
ENDROOT
BRANCH   1   5
ATOM      5  CA  ILE A   5       5.423 -22.069   5.244  0.00  0.00    +0.149 C 
BRANCH   5   7
ATOM      6  C   ASN A   4       3.056 -22.473   4.656  0.00  0.00    +0.241 C 
ATOM      7  N   ILE A   5       3.981 -21.914   5.440  0.00  0.00    -0.297 N 
ATOM      8  H   ILE A   5       3.657 -21.333   6.239  0.00  0.00    +0.150 HD
ATOM      9  O   ASN A   4       3.314 -23.217   3.712  0.00  0.00    -0.273 OA
BRANCH   6  10
ATOM     10  CA  ASN A   4       1.610 -22.153   4.992  0.00  0.00    +0.158 C 
BRANCH  10  13
ATOM     11  C   VAL A   3       1.298 -20.413   3.342  0.00  0.00    +0.241 C 
ATOM     12  O   VAL A   3       2.013 -19.628   3.978  0.00  0.00    -0.273 OA
ATOM     13  N   ASN A   4       1.000 -21.631   3.782  0.00  0.00    -0.297 N 
ATOM     14  H   ASN A   4       0.322 -22.217   3.254  0.00  0.00    +0.150 HD
BRANCH  11  15
ATOM     15  CA  VAL A   3       0.699 -20.013   2.005  0.00  0.00    +0.149 C 
BRANCH  15  17
ATOM     16  C   PRO A   2      -0.648 -18.089   1.323  0.00  0.00    +0.241 C 
ATOM     17  N   VAL A   3       0.408 -18.583   1.975  0.00  0.00    -0.297 N 
ATOM     18  H   VAL A   3       1.042 -17.929   2.477  0.00  0.00    +0.150 HD
ATOM     19  O   PRO A   2      -1.468 -18.805   0.731  0.00  0.00    -0.273 OA
BRANCH  16  26
ATOM     20  C   THR A   1      -0.247 -15.975   3.556  0.00  0.00    +0.244 C 
ATOM     21  O   THR A   1      -1.262 -16.563   3.909  0.00  0.00    -0.273 OA
ATOM     22  N   PRO A   2       0.095 -15.880   2.264  0.00  0.00    -0.272 N 
ATOM     23  CD  PRO A   2       1.148 -15.104   1.580  0.00  0.00    +0.094 C 
ATOM     24  CG  PRO A   2       1.004 -15.527   0.129  0.00  0.00    +0.024 C 
ATOM     25  CB  PRO A   2      -0.410 -15.969  -0.039  0.00  0.00    +0.031 C 
ATOM     26  CA  PRO A   2      -0.816 -16.559   1.321  0.00  0.00    +0.152 C 
BRANCH  20  27
ATOM     27  CA  THR A   1       0.654 -15.306   4.595  0.00  0.00    +0.172 C 
BRANCH  27  28
ATOM     28  N   THR A   1      -0.178 -14.747   5.670  0.00  0.00    -0.236 NA
ATOM     29  H   THR A   1      -0.149 -15.182   6.614  0.00  0.00    +0.142 HD
ENDBRANCH  27  28
BRANCH  27  30
ATOM     30  CB  THR A   1       1.706 -16.308   5.143  0.00  0.00    +0.135 C 
ATOM     31  CG2 THR A   1       1.065 -17.370   6.025  0.00  0.00    +0.034 C 
BRANCH  30  32
ATOM     32  OG1 THR A   1       2.391 -16.939   4.054  0.00  0.00    -0.383 OA
ATOM     33  HG1 THR A   1       1.737 -17.426   3.492  0.00  0.00    +0.210 HD
ENDBRANCH  30  32
ENDBRANCH  27  30
ENDBRANCH  20  27
ENDBRANCH  16  26
ENDBRANCH  15  17
BRANCH  15  34
ATOM     34  CB  VAL A   3       1.693 -20.440   0.880  0.00  0.00    +0.027 C 
ATOM     35  CG2 VAL A   3       2.986 -19.708   1.031  0.00  0.00    +0.002 C 
ATOM     36  CG1 VAL A   3       1.111 -20.194  -0.507  0.00  0.00    +0.002 C 
ENDBRANCH  15  34
ENDBRANCH  11  15
ENDBRANCH  10  13
BRANCH  10  37
ATOM     37  CB  ASN A   4       0.919 -23.436   5.465  0.00  0.00    +0.114 C 
BRANCH  37  38
ATOM     38  CG  ASN A   4      -0.506 -23.214   5.932  0.00  0.00    +0.222 C 
ATOM     39  OD1 ASN A   4      -0.822 -22.203   6.560  0.00  0.00    -0.275 OA
ATOM     40  ND2 ASN A   4      -1.373 -24.183   5.647  0.00  0.00    -0.329 N 
ATOM     41 HD21 ASN A   4      -2.362 -24.104   5.958  0.00  0.00    +0.145 HD
ATOM     42 HD22 ASN A   4      -1.061 -25.020   5.114  0.00  0.00    +0.145 HD
ENDBRANCH  37  38
ENDBRANCH  10  37
ENDBRANCH   6  10
ENDBRANCH   5   7
BRANCH   5  43
ATOM     43  CB  ILE A   5       6.084 -20.689   5.046  0.00  0.00    +0.027 C 
ATOM     44  CG2 ILE A   5       7.593 -20.812   5.055  0.00  0.00    +0.002 C 
BRANCH  43  45
ATOM     45  CG1 ILE A   5       5.624 -20.046   3.749  0.00  0.00    +0.002 C 
ATOM     46  CD1 ILE A   5       5.848 -18.542   3.761  0.00  0.00    +0.000 C 
ENDBRANCH  43  45
ENDBRANCH   5  43
ENDBRANCH   1   5
BRANCH   3  47
ATOM     47  CA  ILE A   6       7.758 -24.306   7.287  0.00  0.00    +0.149 C 
BRANCH  47  48
ATOM     48  C   ILE A   6       9.143 -23.741   7.005  0.00  0.00    +0.241 C 
ATOM     49  N   GLY A   7       9.632 -22.888   7.902  0.00  0.00    -0.295 N 
ATOM     50  H   GLY A   7       9.074 -22.678   8.754  0.00  0.00    +0.150 HD
ATOM     51  O   ILE A   6       9.751 -24.061   5.977  0.00  0.00    -0.273 OA
BRANCH  49  52
ATOM     52  CA  GLY A   7      10.919 -22.242   7.729  0.00  0.00    +0.176 C 
BRANCH  52  53
ATOM     53  C   GLY A   7      12.061 -22.965   8.431  0.00  0.00    +0.243 C 
ATOM     54  O   GLY A   7      11.872 -24.009   9.057  0.00  0.00    -0.273 OA
ATOM     55  N   ARG A   8      13.260 -22.401   8.331  0.00  0.00    -0.297 N 
ATOM     56  H   ARG A   8      13.345 -21.449   7.921  0.00  0.00    +0.150 HD
BRANCH  55  57
ATOM     57  CA  ARG A   8      14.459 -23.094   8.787  0.00  0.00    +0.149 C 
BRANCH  57  58
ATOM     58  C   ARG A   8      14.487 -23.375  10.289  0.00  0.00    +0.241 C 
ATOM     59  N   ASN A   9      13.748 -22.595  11.070  0.00  0.00    -0.298 N 
ATOM     60  H   ASN A   9      13.203 -21.812  10.655  0.00  0.00    +0.150 HD
ATOM     61  O   ARG A   8      15.162 -24.297  10.726  0.00  0.00    -0.273 OA
BRANCH  59  62
ATOM     62  CA  ASN A   9      13.698 -22.832  12.504  0.00  0.00    +0.146 C 
BRANCH  62  63
ATOM     63  C   ASN A   9      13.125 -24.200  12.852  0.00  0.00    +0.227 C 
ATOM     64  O   ASN A   9      13.491 -24.783  13.872  0.00  0.00    -0.286 OA
ENDBRANCH  62  63
BRANCH  62  65
ATOM     65  CB  ASN A   9      12.926 -21.724  13.230  0.00  0.00    +0.112 C 
BRANCH  65  66
ATOM     66  CG  ASN A   9      11.426 -21.824  13.033  0.00  0.00    +0.222 C 
ATOM     67  ND2 ASN A   9      10.689 -21.865  14.136  0.00  0.00    -0.329 N 
ATOM     68 HD21 ASN A   9      11.146 -21.817  15.069  0.00  0.00    +0.145 HD
ATOM     69 HD22 ASN A   9       9.654 -21.945  14.067  0.00  0.00    +0.145 HD
ATOM     70  OD1 ASN A   9      10.935 -21.877  11.908  0.00  0.00    -0.275 OA
ENDBRANCH  65  66
ENDBRANCH  62  65
ENDBRANCH  59  62
ENDBRANCH  57  58
BRANCH  57  71
ATOM     71  CB  ARG A   8      15.719 -22.342   8.359  0.00  0.00    +0.033 C 
BRANCH  71  72
ATOM     72  CG  ARG A   8      15.943 -22.304   6.843  0.00  0.00    +0.045 C 
BRANCH  72  73
ATOM     73  CD  ARG A   8      17.227 -21.531   6.496  0.00  0.00    +0.174 C 
BRANCH  73  74
ATOM     74  NE  ARG A   8      17.675 -20.655   7.574  0.00  0.00    -0.265 N 
ATOM     75  HE  ARG A   8      18.134 -21.099   8.395  0.00  0.00    +0.259 HD
ATOM     76  CZ  ARG A   8      17.542 -19.341   7.587  0.00  0.00    +0.342 C 
ATOM     77  NH2 ARG A   8      17.982 -18.629   8.615  0.00  0.00    -0.292 N 
ATOM     78 HH21 ARG A   8      18.436 -19.105   9.420  0.00  0.00    +0.255 HD
ATOM     79 HH22 ARG A   8      17.873 -17.595   8.616  0.00  0.00    +0.255 HD
ATOM     80  NH1 ARG A   8      16.960 -18.731   6.572  0.00  0.00    -0.292 N 
ATOM     81 HH11 ARG A   8      16.854 -17.696   6.579  0.00  0.00    +0.255 HD
ATOM     82 HH12 ARG A   8      16.608 -19.285   5.765  0.00  0.00    +0.255 HD
ENDBRANCH  73  74
ENDBRANCH  72  73
ENDBRANCH  71  72
ENDBRANCH  57  71
ENDBRANCH  55  57
ENDBRANCH  52  53
ENDBRANCH  49  52
ENDBRANCH  47  48
BRANCH  47  83
ATOM     83  CB  ILE A   6       7.839 -25.838   7.276  0.00  0.00    +0.027 C 
ATOM     84  CG2 ILE A   6       8.697 -26.367   8.464  0.00  0.00    +0.002 C 
BRANCH  83  85
ATOM     85  CG1 ILE A   6       6.428 -26.441   7.306  0.00  0.00    +0.002 C 
ATOM     86  CD1 ILE A   6       5.740 -26.363   8.682  0.00  0.00    +0.000 C 
ENDBRANCH  83  85
ENDBRANCH  47  83
ENDBRANCH   3  47
TORSDOF 32
REMARK  Name = ../refined-set-2016/4hla/4hla_pocket.pdb
REMARK  221 active torsions:
REMARK  status: ('A' for Active; 'I' for Inactive)
REMARK    1  A    between atoms: _1  and  _3
REMARK    2  A    between atoms: _3  and  _4
REMARK    3  A    between atoms: _3  and  _6
REMARK    4  A    between atoms: _6  and  _7
REMARK    5  A    between atoms: _7  and  _8
REMARK    6  A    between atoms: _8  and  _9
REMARK    7  A    between atoms: _18  and  _20
REMARK    8  A    between atoms: _20  and  _21
REMARK    9  A    between atoms: _20  and  _23
REMARK   10  A    between atoms: _23  and  _24
REMARK   11  A    between atoms: _27  and  _29
REMARK   12  A    between atoms: _29  and  _30
REMARK   13  A    between atoms: _29  and  _32
REMARK   14  A    between atoms: _32  and  _33
REMARK   15  A    between atoms: _36  and  _38
REMARK   16  A    between atoms: _38  and  _39
REMARK   17  A    between atoms: _38  and  _41
REMARK   18  A    between atoms: _41  and  _42
REMARK   19  A    between atoms: _45  and  _47
REMARK   20  A    between atoms: _47  and  _48
REMARK   21  A    between atoms: _47  and  _50
REMARK   22  A    between atoms: _50  and  _51
REMARK   23  A    between atoms: _54  and  _56
REMARK   24  A    between atoms: _56  and  _57
REMARK   25  A    between atoms: _59  and  _61
REMARK   26  A    between atoms: _61  and  _62
REMARK   27  A    between atoms: _65  and  _67
REMARK   28  A    between atoms: _67  and  _68
REMARK   29  A    between atoms: _67  and  _70
REMARK   30  A    between atoms: _70  and  _71
REMARK   31  A    between atoms: _74  and  _76
REMARK   32  A    between atoms: _76  and  _77
REMARK   33  A    between atoms: _76  and  _79
REMARK   34  A    between atoms: _79  and  _80
REMARK   35  A    between atoms: _83  and  _85
REMARK   36  A    between atoms: _85  and  _86
REMARK   37  A    between atoms: _85  and  _88
REMARK   38  A    between atoms: _88  and  _89
REMARK   39  A    between atoms: _92  and  _94
REMARK   40  A    between atoms: _94  and  _95
REMARK   41  A    between atoms: _94  and  _97
REMARK   42  A    between atoms: _100  and  _102
REMARK   43  A    between atoms: _102  and  _103
REMARK   44  A    between atoms: _102  and  _105
REMARK   45  A    between atoms: _105  and  _106
REMARK   46  A    between atoms: _106  and  _107
REMARK   47  A    between atoms: _107  and  _108
REMARK   48  A    between atoms: _108  and  _109
REMARK   49  A    between atoms: _113  and  _115
REMARK   50  A    between atoms: _115  and  _116
REMARK   51  A    between atoms: _115  and  _118
REMARK   52  A    between atoms: _118  and  _119
REMARK   53  A    between atoms: _119  and  _120
REMARK   54  A    between atoms: _122  and  _124
REMARK   55  A    between atoms: _124  and  _125
REMARK   56  A    between atoms: _124  and  _127
REMARK   57  A    between atoms: _127  and  _128
REMARK   58  A    between atoms: _131  and  _133
REMARK   59  A    between atoms: _133  and  _134
REMARK   60  A    between atoms: _136  and  _138
REMARK   61  A    between atoms: _138  and  _139
REMARK   62  A    between atoms: _141  and  _143
REMARK   63  A    between atoms: _143  and  _144
REMARK   64  A    between atoms: _143  and  _146
REMARK   65  A    between atoms: _146  and  _147
REMARK   66  A    between atoms: _150  and  _152
REMARK   67  A    between atoms: _152  and  _153
REMARK   68  A    between atoms: _155  and  _157
REMARK   69  A    between atoms: _157  and  _158
REMARK   70  A    between atoms: _160  and  _162
REMARK   71  A    between atoms: _162  and  _163
REMARK   72  A    between atoms: _162  and  _165
REMARK   73  A    between atoms: _165  and  _166
REMARK   74  A    between atoms: _169  and  _171
REMARK   75  A    between atoms: _171  and  _172
REMARK   76  A    between atoms: _171  and  _174
REMARK   77  A    between atoms: _174  and  _175
REMARK   78  A    between atoms: _178  and  _180
REMARK   79  A    between atoms: _180  and  _181
REMARK   80  A    between atoms: _180  and  _183
REMARK   81  A    between atoms: _183  and  _184
REMARK   82  A    between atoms: _188  and  _189
REMARK   83  A    between atoms: _194  and  _196
REMARK   84  A    between atoms: _196  and  _197
REMARK   85  A    between atoms: _196  and  _199
REMARK   86  A    between atoms: _202  and  _204
REMARK   87  A    between atoms: _204  and  _205
REMARK   88  A    between atoms: _204  and  _207
REMARK   89  A    between atoms: _207  and  _208
REMARK   90  A    between atoms: _213  and  _215
REMARK   91  A    between atoms: _215  and  _216
REMARK   92  A    between atoms: _215  and  _218
REMARK   93  A    between atoms: _218  and  _219
REMARK   94  A    between atoms: _222  and  _224
REMARK   95  A    between atoms: _224  and  _225
REMARK   96  A    between atoms: _224  and  _227
REMARK   97  A    between atoms: _227  and  _228
REMARK   98  A    between atoms: _231  and  _233
REMARK   99  A    between atoms: _233  and  _234
REMARK  100  A    between atoms: _236  and  _238
REMARK  101  A    between atoms: _238  and  _239
REMARK  102  A    between atoms: _238  and  _241
REMARK  103  A    between atoms: _241  and  _242
REMARK  104  A    between atoms: _242  and  _243
REMARK  105  A    between atoms: _243  and  _244
REMARK  106  A    between atoms: _253  and  _255
REMARK  107  A    between atoms: _255  and  _256
REMARK  108  A    between atoms: _255  and  _258
REMARK  109  A    between atoms: _258  and  _259
REMARK  110  A    between atoms: _264  and  _266
REMARK  111  A    between atoms: _266  and  _267
REMARK  112  A    between atoms: _266  and  _269
REMARK  113  A    between atoms: _269  and  _270
REMARK  114  A    between atoms: _270  and  _271
REMARK  115  A    between atoms: _271  and  _272
REMARK  116  A    between atoms: _281  and  _283
REMARK  117  A    between atoms: _283  and  _284
REMARK  118  A    between atoms: _283  and  _286
REMARK  119  A    between atoms: _286  and  _287
REMARK  120  A    between atoms: _290  and  _292
REMARK  121  A    between atoms: _292  and  _293
REMARK  122  A    between atoms: _292  and  _295
REMARK  123  A    between atoms: _295  and  _296
REMARK  124  A    between atoms: _299  and  _301
REMARK  125  A    between atoms: _301  and  _302
REMARK  126  A    between atoms: _301  and  _304
REMARK  127  A    between atoms: _304  and  _305
REMARK  128  A    between atoms: _308  and  _310
REMARK  129  A    between atoms: _310  and  _311
REMARK  130  A    between atoms: _310  and  _313
REMARK  131  A    between atoms: _313  and  _314
REMARK  132  A    between atoms: _317  and  _319
REMARK  133  A    between atoms: _319  and  _320
REMARK  134  A    between atoms: _322  and  _324
REMARK  135  A    between atoms: _324  and  _325
REMARK  136  A    between atoms: _328  and  _330
REMARK  137  A    between atoms: _330  and  _331
REMARK  138  A    between atoms: _330  and  _333
REMARK  139  A    between atoms: _333  and  _334
REMARK  140  A    between atoms: _337  and  _339
REMARK  141  A    between atoms: _339  and  _340
REMARK  142  A    between atoms: _339  and  _342
REMARK  143  A    between atoms: _342  and  _343
REMARK  144  A    between atoms: _346  and  _348
REMARK  145  A    between atoms: _348  and  _349
REMARK  146  A    between atoms: _348  and  _351
REMARK  147  A    between atoms: _351  and  _352
REMARK  148  A    between atoms: _355  and  _357
REMARK  149  A    between atoms: _357  and  _358
REMARK  150  A    between atoms: _357  and  _360
REMARK  151  A    between atoms: _363  and  _365
REMARK  152  A    between atoms: _365  and  _366
REMARK  153  A    between atoms: _365  and  _368
REMARK  154  A    between atoms: _368  and  _369
REMARK  155  A    between atoms: _369  and  _370
REMARK  156  A    between atoms: _370  and  _371
REMARK  157  A    between atoms: _371  and  _372
REMARK  158  A    between atoms: _376  and  _378
REMARK  159  A    between atoms: _378  and  _379
REMARK  160  A    between atoms: _378  and  _381
REMARK  161  A    between atoms: _381  and  _382
REMARK  162  A    between atoms: _382  and  _383
REMARK  163  A    between atoms: _385  and  _387
REMARK  164  A    between atoms: _387  and  _388
REMARK  165  A    between atoms: _387  and  _390
REMARK  166  A    between atoms: _390  and  _391
REMARK  167  A    between atoms: _394  and  _396
REMARK  168  A    between atoms: _396  and  _397
REMARK  169  A    between atoms: _399  and  _401
REMARK  170  A    between atoms: _401  and  _402
REMARK  171  A    between atoms: _404  and  _406
REMARK  172  A    between atoms: _406  and  _407
REMARK  173  A    between atoms: _406  and  _409
REMARK  174  A    between atoms: _409  and  _410
REMARK  175  A    between atoms: _413  and  _415
REMARK  176  A    between atoms: _415  and  _416
REMARK  177  A    between atoms: _418  and  _420
REMARK  178  A    between atoms: _420  and  _421
REMARK  179  A    between atoms: _423  and  _425
REMARK  180  A    between atoms: _425  and  _426
REMARK  181  A    between atoms: _425  and  _428
REMARK  182  A    between atoms: _428  and  _429
REMARK  183  A    between atoms: _432  and  _434
REMARK  184  A    between atoms: _434  and  _435
REMARK  185  A    between atoms: _434  and  _437
REMARK  186  A    between atoms: _440  and  _442
REMARK  187  A    between atoms: _442  and  _443
REMARK  188  A    between atoms: _442  and  _445
REMARK  189  A    between atoms: _445  and  _446
REMARK  190  A    between atoms: _449  and  _451
REMARK  191  A    between atoms: _451  and  _452
REMARK  192  A    between atoms: _451  and  _454
REMARK  193  A    between atoms: _454  and  _455
REMARK  194  A    between atoms: _459  and  _460
REMARK  195  A    between atoms: _465  and  _467
REMARK  196  A    between atoms: _467  and  _468
REMARK  197  A    between atoms: _467  and  _470
REMARK  198  A    between atoms: _473  and  _475
REMARK  199  A    between atoms: _475  and  _476
REMARK  200  A    between atoms: _475  and  _478
REMARK  201  A    between atoms: _478  and  _479
REMARK  202  A    between atoms: _484  and  _486
REMARK  203  A    between atoms: _486  and  _487
REMARK  204  A    between atoms: _486  and  _489
REMARK  205  A    between atoms: _489  and  _490
REMARK  206  A    between atoms: _493  and  _495
REMARK  207  A    between atoms: _495  and  _496
REMARK  208  A    between atoms: _495  and  _498
REMARK  209  A    between atoms: _498  and  _499
REMARK  210  A    between atoms: _502  and  _504
REMARK  211  A    between atoms: _504  and  _505
REMARK  212  A    between atoms: _507  and  _509
REMARK  213  A    between atoms: _509  and  _510
REMARK  214  A    between atoms: _509  and  _512
REMARK  215  A    between atoms: _512  and  _513
REMARK  216  A    between atoms: _513  and  _514
REMARK  217  A    between atoms: _514  and  _515
REMARK  218  A    between atoms: _524  and  _526
REMARK  219  A    between atoms: _526  and  _527
REMARK  220  A    between atoms: _526  and  _529
REMARK  221  A    between atoms: _529  and  _530
REMARK                            x       y       z     vdW  Elec       q    Type
REMARK                         _______ _______ _______ _____ _____    ______ ____
ROOT
ATOM      1  O   HOH     1       7.779 -23.977  -4.221  0.00  0.00    +0.000 OA
ENDROOT
TORSDOF 0
REMARK  Name = ../refined-set-2016/4hla/4hla_pocket.pdb
REMARK  221 active torsions:
REMARK  status: ('A' for Active; 'I' for Inactive)
REMARK    1  A    between atoms: _1  and  _3
REMARK    2  A    between atoms: _3  and  _4
REMARK    3  A    between atoms: _3  and  _6
REMARK    4  A    between atoms: _6  and  _7
REMARK    5  A    between atoms: _7  and  _8
REMARK    6  A    between atoms: _8  and  _9
REMARK    7  A    between atoms: _18  and  _20
REMARK    8  A    between atoms: _20  and  _21
REMARK    9  A    between atoms: _20  and  _23
REMARK   10  A    between atoms: _23  and  _24
REMARK   11  A    between atoms: _27  and  _29
REMARK   12  A    between atoms: _29  and  _30
REMARK   13  A    between atoms: _29  and  _32
REMARK   14  A    between atoms: _32  and  _33
REMARK   15  A    between atoms: _36  and  _38
REMARK   16  A    between atoms: _38  and  _39
REMARK   17  A    between atoms: _38  and  _41
REMARK   18  A    between atoms: _41  and  _42
REMARK   19  A    between atoms: _45  and  _47
REMARK   20  A    between atoms: _47  and  _48
REMARK   21  A    between atoms: _47  and  _50
REMARK   22  A    between atoms: _50  and  _51
REMARK   23  A    between atoms: _54  and  _56
REMARK   24  A    between atoms: _56  and  _57
REMARK   25  A    between atoms: _59  and  _61
REMARK   26  A    between atoms: _61  and  _62
REMARK   27  A    between atoms: _65  and  _67
REMARK   28  A    between atoms: _67  and  _68
REMARK   29  A    between atoms: _67  and  _70
REMARK   30  A    between atoms: _70  and  _71
REMARK   31  A    between atoms: _74  and  _76
REMARK   32  A    between atoms: _76  and  _77
REMARK   33  A    between atoms: _76  and  _79
REMARK   34  A    between atoms: _79  and  _80
REMARK   35  A    between atoms: _83  and  _85
REMARK   36  A    between atoms: _85  and  _86
REMARK   37  A    between atoms: _85  and  _88
REMARK   38  A    between atoms: _88  and  _89
REMARK   39  A    between atoms: _92  and  _94
REMARK   40  A    between atoms: _94  and  _95
REMARK   41  A    between atoms: _94  and  _97
REMARK   42  A    between atoms: _100  and  _102
REMARK   43  A    between atoms: _102  and  _103
REMARK   44  A    between atoms: _102  and  _105
REMARK   45  A    between atoms: _105  and  _106
REMARK   46  A    between atoms: _106  and  _107
REMARK   47  A    between atoms: _107  and  _108
REMARK   48  A    between atoms: _108  and  _109
REMARK   49  A    between atoms: _113  and  _115
REMARK   50  A    between atoms: _115  and  _116
REMARK   51  A    between atoms: _115  and  _118
REMARK   52  A    between atoms: _118  and  _119
REMARK   53  A    between atoms: _119  and  _120
REMARK   54  A    between atoms: _122  and  _124
REMARK   55  A    between atoms: _124  and  _125
REMARK   56  A    between atoms: _124  and  _127
REMARK   57  A    between atoms: _127  and  _128
REMARK   58  A    between atoms: _131  and  _133
REMARK   59  A    between atoms: _133  and  _134
REMARK   60  A    between atoms: _136  and  _138
REMARK   61  A    between atoms: _138  and  _139
REMARK   62  A    between atoms: _141  and  _143
REMARK   63  A    between atoms: _143  and  _144
REMARK   64  A    between atoms: _143  and  _146
REMARK   65  A    between atoms: _146  and  _147
REMARK   66  A    between atoms: _150  and  _152
REMARK   67  A    between atoms: _152  and  _153
REMARK   68  A    between atoms: _155  and  _157
REMARK   69  A    between atoms: _157  and  _158
REMARK   70  A    between atoms: _160  and  _162
REMARK   71  A    between atoms: _162  and  _163
REMARK   72  A    between atoms: _162  and  _165
REMARK   73  A    between atoms: _165  and  _166
REMARK   74  A    between atoms: _169  and  _171
REMARK   75  A    between atoms: _171  and  _172
REMARK   76  A    between atoms: _171  and  _174
REMARK   77  A    between atoms: _174  and  _175
REMARK   78  A    between atoms: _178  and  _180
REMARK   79  A    between atoms: _180  and  _181
REMARK   80  A    between atoms: _180  and  _183
REMARK   81  A    between atoms: _183  and  _184
REMARK   82  A    between atoms: _188  and  _189
REMARK   83  A    between atoms: _194  and  _196
REMARK   84  A    between atoms: _196  and  _197
REMARK   85  A    between atoms: _196  and  _199
REMARK   86  A    between atoms: _202  and  _204
REMARK   87  A    between atoms: _204  and  _205
REMARK   88  A    between atoms: _204  and  _207
REMARK   89  A    between atoms: _207  and  _208
REMARK   90  A    between atoms: _213  and  _215
REMARK   91  A    between atoms: _215  and  _216
REMARK   92  A    between atoms: _215  and  _218
REMARK   93  A    between atoms: _218  and  _219
REMARK   94  A    between atoms: _222  and  _224
REMARK   95  A    between atoms: _224  and  _225
REMARK   96  A    between atoms: _224  and  _227
REMARK   97  A    between atoms: _227  and  _228
REMARK   98  A    between atoms: _231  and  _233
REMARK   99  A    between atoms: _233  and  _234
REMARK  100  A    between atoms: _236  and  _238
REMARK  101  A    between atoms: _238  and  _239
REMARK  102  A    between atoms: _238  and  _241
REMARK  103  A    between atoms: _241  and  _242
REMARK  104  A    between atoms: _242  and  _243
REMARK  105  A    between atoms: _243  and  _244
REMARK  106  A    between atoms: _253  and  _255
REMARK  107  A    between atoms: _255  and  _256
REMARK  108  A    between atoms: _255  and  _258
REMARK  109  A    between atoms: _258  and  _259
REMARK  110  A    between atoms: _264  and  _266
REMARK  111  A    between atoms: _266  and  _267
REMARK  112  A    between atoms: _266  and  _269
REMARK  113  A    between atoms: _269  and  _270
REMARK  114  A    between atoms: _270  and  _271
REMARK  115  A    between atoms: _271  and  _272
REMARK  116  A    between atoms: _281  and  _283
REMARK  117  A    between atoms: _283  and  _284
REMARK  118  A    between atoms: _283  and  _286
REMARK  119  A    between atoms: _286  and  _287
REMARK  120  A    between atoms: _290  and  _292
REMARK  121  A    between atoms: _292  and  _293
REMARK  122  A    between atoms: _292  and  _295
REMARK  123  A    between atoms: _295  and  _296
REMARK  124  A    between atoms: _299  and  _301
REMARK  125  A    between atoms: _301  and  _302
REMARK  126  A    between atoms: _301  and  _304
REMARK  127  A    between atoms: _304  and  _305
REMARK  128  A    between atoms: _308  and  _310
REMARK  129  A    between atoms: _310  and  _311
REMARK  130  A    between atoms: _310  and  _313
REMARK  131  A    between atoms: _313  and  _314
REMARK  132  A    between atoms: _317  and  _319
REMARK  133  A    between atoms: _319  and  _320
REMARK  134  A    between atoms: _322  and  _324
REMARK  135  A    between atoms: _324  and  _325
REMARK  136  A    between atoms: _328  and  _330
REMARK  137  A    between atoms: _330  and  _331
REMARK  138  A    between atoms: _330  and  _333
REMARK  139  A    between atoms: _333  and  _334
REMARK  140  A    between atoms: _337  and  _339
REMARK  141  A    between atoms: _339  and  _340
REMARK  142  A    between atoms: _339  and  _342
REMARK  143  A    between atoms: _342  and  _343
REMARK  144  A    between atoms: _346  and  _348
REMARK  145  A    between atoms: _348  and  _349
REMARK  146  A    between atoms: _348  and  _351
REMARK  147  A    between atoms: _351  and  _352
REMARK  148  A    between atoms: _355  and  _357
REMARK  149  A    between atoms: _357  and  _358
REMARK  150  A    between atoms: _357  and  _360
REMARK  151  A    between atoms: _363  and  _365
REMARK  152  A    between atoms: _365  and  _366
REMARK  153  A    between atoms: _365  and  _368
REMARK  154  A    between atoms: _368  and  _369
REMARK  155  A    between atoms: _369  and  _370
REMARK  156  A    between atoms: _370  and  _371
REMARK  157  A    between atoms: _371  and  _372
REMARK  158  A    between atoms: _376  and  _378
REMARK  159  A    between atoms: _378  and  _379
REMARK  160  A    between atoms: _378  and  _381
REMARK  161  A    between atoms: _381  and  _382
REMARK  162  A    between atoms: _382  and  _383
REMARK  163  A    between atoms: _385  and  _387
REMARK  164  A    between atoms: _387  and  _388
REMARK  165  A    between atoms: _387  and  _390
REMARK  166  A    between atoms: _390  and  _391
REMARK  167  A    between atoms: _394  and  _396
REMARK  168  A    between atoms: _396  and  _397
REMARK  169  A    between atoms: _399  and  _401
REMARK  170  A    between atoms: _401  and  _402
REMARK  171  A    between atoms: _404  and  _406
REMARK  172  A    between atoms: _406  and  _407
REMARK  173  A    between atoms: _406  and  _409
REMARK  174  A    between atoms: _409  and  _410
REMARK  175  A    between atoms: _413  and  _415
REMARK  176  A    between atoms: _415  and  _416
REMARK  177  A    between atoms: _418  and  _420
REMARK  178  A    between atoms: _420  and  _421
REMARK  179  A    between atoms: _423  and  _425
REMARK  180  A    between atoms: _425  and  _426
REMARK  181  A    between atoms: _425  and  _428
REMARK  182  A    between atoms: _428  and  _429
REMARK  183  A    between atoms: _432  and  _434
REMARK  184  A    between atoms: _434  and  _435
REMARK  185  A    between atoms: _434  and  _437
REMARK  186  A    between atoms: _440  and  _442
REMARK  187  A    between atoms: _442  and  _443
REMARK  188  A    between atoms: _442  and  _445
REMARK  189  A    between atoms: _445  and  _446
REMARK  190  A    between atoms: _449  and  _451
REMARK  191  A    between atoms: _451  and  _452
REMARK  192  A    between atoms: _451  and  _454
REMARK  193  A    between atoms: _454  and  _455
REMARK  194  A    between atoms: _459  and  _460
REMARK  195  A    between atoms: _465  and  _467
REMARK  196  A    between atoms: _467  and  _468
REMARK  197  A    between atoms: _467  and  _470
REMARK  198  A    between atoms: _473  and  _475
REMARK  199  A    between atoms: _475  and  _476
REMARK  200  A    between atoms: _475  and  _478
REMARK  201  A    between atoms: _478  and  _479
REMARK  202  A    between atoms: _484  and  _486
REMARK  203  A    between atoms: _486  and  _487
REMARK  204  A    between atoms: _486  and  _489
REMARK  205  A    between atoms: _489  and  _490
REMARK  206  A    between atoms: _493  and  _495
REMARK  207  A    between atoms: _495  and  _496
REMARK  208  A    between atoms: _495  and  _498
REMARK  209  A    between atoms: _498  and  _499
REMARK  210  A    between atoms: _502  and  _504
REMARK  211  A    between atoms: _504  and  _505
REMARK  212  A    between atoms: _507  and  _509
REMARK  213  A    between atoms: _509  and  _510
REMARK  214  A    between atoms: _509  and  _512
REMARK  215  A    between atoms: _512  and  _513
REMARK  216  A    between atoms: _513  and  _514
REMARK  217  A    between atoms: _514  and  _515
REMARK  218  A    between atoms: _524  and  _526
REMARK  219  A    between atoms: _526  and  _527
REMARK  220  A    between atoms: _526  and  _529
REMARK  221  A    between atoms: _529  and  _530
REMARK                            x       y       z     vdW  Elec       q    Type
REMARK                         _______ _______ _______ _____ _____    ______ ____
ROOT
ATOM      1  O   HOH     1      15.988 -16.156   4.552  0.00  0.00    +0.000 OA
ENDROOT
TORSDOF 0
REMARK  Name = ../refined-set-2016/4hla/4hla_pocket.pdb
REMARK  221 active torsions:
REMARK  status: ('A' for Active; 'I' for Inactive)
REMARK    1  A    between atoms: _1  and  _3
REMARK    2  A    between atoms: _3  and  _4
REMARK    3  A    between atoms: _3  and  _6
REMARK    4  A    between atoms: _6  and  _7
REMARK    5  A    between atoms: _7  and  _8
REMARK    6  A    between atoms: _8  and  _9
REMARK    7  A    between atoms: _18  and  _20
REMARK    8  A    between atoms: _20  and  _21
REMARK    9  A    between atoms: _20  and  _23
REMARK   10  A    between atoms: _23  and  _24
REMARK   11  A    between atoms: _27  and  _29
REMARK   12  A    between atoms: _29  and  _30
REMARK   13  A    between atoms: _29  and  _32
REMARK   14  A    between atoms: _32  and  _33
REMARK   15  A    between atoms: _36  and  _38
REMARK   16  A    between atoms: _38  and  _39
REMARK   17  A    between atoms: _38  and  _41
REMARK   18  A    between atoms: _41  and  _42
REMARK   19  A    between atoms: _45  and  _47
REMARK   20  A    between atoms: _47  and  _48
REMARK   21  A    between atoms: _47  and  _50
REMARK   22  A    between atoms: _50  and  _51
REMARK   23  A    between atoms: _54  and  _56
REMARK   24  A    between atoms: _56  and  _57
REMARK   25  A    between atoms: _59  and  _61
REMARK   26  A    between atoms: _61  and  _62
REMARK   27  A    between atoms: _65  and  _67
REMARK   28  A    between atoms: _67  and  _68
REMARK   29  A    between atoms: _67  and  _70
REMARK   30  A    between atoms: _70  and  _71
REMARK   31  A    between atoms: _74  and  _76
REMARK   32  A    between atoms: _76  and  _77
REMARK   33  A    between atoms: _76  and  _79
REMARK   34  A    between atoms: _79  and  _80
REMARK   35  A    between atoms: _83  and  _85
REMARK   36  A    between atoms: _85  and  _86
REMARK   37  A    between atoms: _85  and  _88
REMARK   38  A    between atoms: _88  and  _89
REMARK   39  A    between atoms: _92  and  _94
REMARK   40  A    between atoms: _94  and  _95
REMARK   41  A    between atoms: _94  and  _97
REMARK   42  A    between atoms: _100  and  _102
REMARK   43  A    between atoms: _102  and  _103
REMARK   44  A    between atoms: _102  and  _105
REMARK   45  A    between atoms: _105  and  _106
REMARK   46  A    between atoms: _106  and  _107
REMARK   47  A    between atoms: _107  and  _108
REMARK   48  A    between atoms: _108  and  _109
REMARK   49  A    between atoms: _113  and  _115
REMARK   50  A    between atoms: _115  and  _116
REMARK   51  A    between atoms: _115  and  _118
REMARK   52  A    between atoms: _118  and  _119
REMARK   53  A    between atoms: _119  and  _120
REMARK   54  A    between atoms: _122  and  _124
REMARK   55  A    between atoms: _124  and  _125
REMARK   56  A    between atoms: _124  and  _127
REMARK   57  A    between atoms: _127  and  _128
REMARK   58  A    between atoms: _131  and  _133
REMARK   59  A    between atoms: _133  and  _134
REMARK   60  A    between atoms: _136  and  _138
REMARK   61  A    between atoms: _138  and  _139
REMARK   62  A    between atoms: _141  and  _143
REMARK   63  A    between atoms: _143  and  _144
REMARK   64  A    between atoms: _143  and  _146
REMARK   65  A    between atoms: _146  and  _147
REMARK   66  A    between atoms: _150  and  _152
REMARK   67  A    between atoms: _152  and  _153
REMARK   68  A    between atoms: _155  and  _157
REMARK   69  A    between atoms: _157  and  _158
REMARK   70  A    between atoms: _160  and  _162
REMARK   71  A    between atoms: _162  and  _163
REMARK   72  A    between atoms: _162  and  _165
REMARK   73  A    between atoms: _165  and  _166
REMARK   74  A    between atoms: _169  and  _171
REMARK   75  A    between atoms: _171  and  _172
REMARK   76  A    between atoms: _171  and  _174
REMARK   77  A    between atoms: _174  and  _175
REMARK   78  A    between atoms: _178  and  _180
REMARK   79  A    between atoms: _180  and  _181
REMARK   80  A    between atoms: _180  and  _183
REMARK   81  A    between atoms: _183  and  _184
REMARK   82  A    between atoms: _188  and  _189
REMARK   83  A    between atoms: _194  and  _196
REMARK   84  A    between atoms: _196  and  _197
REMARK   85  A    between atoms: _196  and  _199
REMARK   86  A    between atoms: _202  and  _204
REMARK   87  A    between atoms: _204  and  _205
REMARK   88  A    between atoms: _204  and  _207
REMARK   89  A    between atoms: _207  and  _208
REMARK   90  A    between atoms: _213  and  _215
REMARK   91  A    between atoms: _215  and  _216
REMARK   92  A    between atoms: _215  and  _218
REMARK   93  A    between atoms: _218  and  _219
REMARK   94  A    between atoms: _222  and  _224
REMARK   95  A    between atoms: _224  and  _225
REMARK   96  A    between atoms: _224  and  _227
REMARK   97  A    between atoms: _227  and  _228
REMARK   98  A    between atoms: _231  and  _233
REMARK   99  A    between atoms: _233  and  _234
REMARK  100  A    between atoms: _236  and  _238
REMARK  101  A    between atoms: _238  and  _239
REMARK  102  A    between atoms: _238  and  _241
REMARK  103  A    between atoms: _241  and  _242
REMARK  104  A    between atoms: _242  and  _243
REMARK  105  A    between atoms: _243  and  _244
REMARK  106  A    between atoms: _253  and  _255
REMARK  107  A    between atoms: _255  and  _256
REMARK  108  A    between atoms: _255  and  _258
REMARK  109  A    between atoms: _258  and  _259
REMARK  110  A    between atoms: _264  and  _266
REMARK  111  A    between atoms: _266  and  _267
REMARK  112  A    between atoms: _266  and  _269
REMARK  113  A    between atoms: _269  and  _270
REMARK  114  A    between atoms: _270  and  _271
REMARK  115  A    between atoms: _271  and  _272
REMARK  116  A    between atoms: _281  and  _283
REMARK  117  A    between atoms: _283  and  _284
REMARK  118  A    between atoms: _283  and  _286
REMARK  119  A    between atoms: _286  and  _287
REMARK  120  A    between atoms: _290  and  _292
REMARK  121  A    between atoms: _292  and  _293
REMARK  122  A    between atoms: _292  and  _295
REMARK  123  A    between atoms: _295  and  _296
REMARK  124  A    between atoms: _299  and  _301
REMARK  125  A    between atoms: _301  and  _302
REMARK  126  A    between atoms: _301  and  _304
REMARK  127  A    between atoms: _304  and  _305
REMARK  128  A    between atoms: _308  and  _310
REMARK  129  A    between atoms: _310  and  _311
REMARK  130  A    between atoms: _310  and  _313
REMARK  131  A    between atoms: _313  and  _314
REMARK  132  A    between atoms: _317  and  _319
REMARK  133  A    between atoms: _319  and  _320
REMARK  134  A    between atoms: _322  and  _324
REMARK  135  A    between atoms: _324  and  _325
REMARK  136  A    between atoms: _328  and  _330
REMARK  137  A    between atoms: _330  and  _331
REMARK  138  A    between atoms: _330  and  _333
REMARK  139  A    between atoms: _333  and  _334
REMARK  140  A    between atoms: _337  and  _339
REMARK  141  A    between atoms: _339  and  _340
REMARK  142  A    between atoms: _339  and  _342
REMARK  143  A    between atoms: _342  and  _343
REMARK  144  A    between atoms: _346  and  _348
REMARK  145  A    between atoms: _348  and  _349
REMARK  146  A    between atoms: _348  and  _351
REMARK  147  A    between atoms: _351  and  _352
REMARK  148  A    between atoms: _355  and  _357
REMARK  149  A    between atoms: _357  and  _358
REMARK  150  A    between atoms: _357  and  _360
REMARK  151  A    between atoms: _363  and  _365
REMARK  152  A    between atoms: _365  and  _366
REMARK  153  A    between atoms: _365  and  _368
REMARK  154  A    between atoms: _368  and  _369
REMARK  155  A    between atoms: _369  and  _370
REMARK  156  A    between atoms: _370  and  _371
REMARK  157  A    between atoms: _371  and  _372
REMARK  158  A    between atoms: _376  and  _378
REMARK  159  A    between atoms: _378  and  _379
REMARK  160  A    between atoms: _378  and  _381
REMARK  161  A    between atoms: _381  and  _382
REMARK  162  A    between atoms: _382  and  _383
REMARK  163  A    between atoms: _385  and  _387
REMARK  164  A    between atoms: _387  and  _388
REMARK  165  A    between atoms: _387  and  _390
REMARK  166  A    between atoms: _390  and  _391
REMARK  167  A    between atoms: _394  and  _396
REMARK  168  A    between atoms: _396  and  _397
REMARK  169  A    between atoms: _399  and  _401
REMARK  170  A    between atoms: _401  and  _402
REMARK  171  A    between atoms: _404  and  _406
REMARK  172  A    between atoms: _406  and  _407
REMARK  173  A    between atoms: _406  and  _409
REMARK  174  A    between atoms: _409  and  _410
REMARK  175  A    between atoms: _413  and  _415
REMARK  176  A    between atoms: _415  and  _416
REMARK  177  A    between atoms: _418  and  _420
REMARK  178  A    between atoms: _420  and  _421
REMARK  179  A    between atoms: _423  and  _425
REMARK  180  A    between atoms: _425  and  _426
REMARK  181  A    between atoms: _425  and  _428
REMARK  182  A    between atoms: _428  and  _429
REMARK  183  A    between atoms: _432  and  _434
REMARK  184  A    between atoms: _434  and  _435
REMARK  185  A    between atoms: _434  and  _437
REMARK  186  A    between atoms: _440  and  _442
REMARK  187  A    between atoms: _442  and  _443
REMARK  188  A    between atoms: _442  and  _445
REMARK  189  A    between atoms: _445  and  _446
REMARK  190  A    between atoms: _449  and  _451
REMARK  191  A    between atoms: _451  and  _452
REMARK  192  A    between atoms: _451  and  _454
REMARK  193  A    between atoms: _454  and  _455
REMARK  194  A    between atoms: _459  and  _460
REMARK  195  A    between atoms: _465  and  _467
REMARK  196  A    between atoms: _467  and  _468
REMARK  197  A    between atoms: _467  and  _470
REMARK  198  A    between atoms: _473  and  _475
REMARK  199  A    between atoms: _475  and  _476
REMARK  200  A    between atoms: _475  and  _478
REMARK  201  A    between atoms: _478  and  _479
REMARK  202  A    between atoms: _484  and  _486
REMARK  203  A    between atoms: _486  and  _487
REMARK  204  A    between atoms: _486  and  _489
REMARK  205  A    between atoms: _489  and  _490
REMARK  206  A    between atoms: _493  and  _495
REMARK  207  A    between atoms: _495  and  _496
REMARK  208  A    between atoms: _495  and  _498
REMARK  209  A    between atoms: _498  and  _499
REMARK  210  A    between atoms: _502  and  _504
REMARK  211  A    between atoms: _504  and  _505
REMARK  212  A    between atoms: _507  and  _509
REMARK  213  A    between atoms: _509  and  _510
REMARK  214  A    between atoms: _509  and  _512
REMARK  215  A    between atoms: _512  and  _513
REMARK  216  A    between atoms: _513  and  _514
REMARK  217  A    between atoms: _514  and  _515
REMARK  218  A    between atoms: _524  and  _526
REMARK  219  A    between atoms: _526  and  _527
REMARK  220  A    between atoms: _526  and  _529
REMARK  221  A    between atoms: _529  and  _530
REMARK                            x       y       z     vdW  Elec       q    Type
REMARK                         _______ _______ _______ _____ _____    ______ ____
ROOT
ATOM      1  O   HOH     1      12.337 -17.033 -12.608  0.00  0.00    +0.000 OA
ENDROOT
TORSDOF 0
REMARK  Name = ../refined-set-2016/4hla/4hla_pocket.pdb
REMARK  221 active torsions:
REMARK  status: ('A' for Active; 'I' for Inactive)
REMARK    1  A    between atoms: _1  and  _3
REMARK    2  A    between atoms: _3  and  _4
REMARK    3  A    between atoms: _3  and  _6
REMARK    4  A    between atoms: _6  and  _7
REMARK    5  A    between atoms: _7  and  _8
REMARK    6  A    between atoms: _8  and  _9
REMARK    7  A    between atoms: _18  and  _20
REMARK    8  A    between atoms: _20  and  _21
REMARK    9  A    between atoms: _20  and  _23
REMARK   10  A    between atoms: _23  and  _24
REMARK   11  A    between atoms: _27  and  _29
REMARK   12  A    between atoms: _29  and  _30
REMARK   13  A    between atoms: _29  and  _32
REMARK   14  A    between atoms: _32  and  _33
REMARK   15  A    between atoms: _36  and  _38
REMARK   16  A    between atoms: _38  and  _39
REMARK   17  A    between atoms: _38  and  _41
REMARK   18  A    between atoms: _41  and  _42
REMARK   19  A    between atoms: _45  and  _47
REMARK   20  A    between atoms: _47  and  _48
REMARK   21  A    between atoms: _47  and  _50
REMARK   22  A    between atoms: _50  and  _51
REMARK   23  A    between atoms: _54  and  _56
REMARK   24  A    between atoms: _56  and  _57
REMARK   25  A    between atoms: _59  and  _61
REMARK   26  A    between atoms: _61  and  _62
REMARK   27  A    between atoms: _65  and  _67
REMARK   28  A    between atoms: _67  and  _68
REMARK   29  A    between atoms: _67  and  _70
REMARK   30  A    between atoms: _70  and  _71
REMARK   31  A    between atoms: _74  and  _76
REMARK   32  A    between atoms: _76  and  _77
REMARK   33  A    between atoms: _76  and  _79
REMARK   34  A    between atoms: _79  and  _80
REMARK   35  A    between atoms: _83  and  _85
REMARK   36  A    between atoms: _85  and  _86
REMARK   37  A    between atoms: _85  and  _88
REMARK   38  A    between atoms: _88  and  _89
REMARK   39  A    between atoms: _92  and  _94
REMARK   40  A    between atoms: _94  and  _95
REMARK   41  A    between atoms: _94  and  _97
REMARK   42  A    between atoms: _100  and  _102
REMARK   43  A    between atoms: _102  and  _103
REMARK   44  A    between atoms: _102  and  _105
REMARK   45  A    between atoms: _105  and  _106
REMARK   46  A    between atoms: _106  and  _107
REMARK   47  A    between atoms: _107  and  _108
REMARK   48  A    between atoms: _108  and  _109
REMARK   49  A    between atoms: _113  and  _115
REMARK   50  A    between atoms: _115  and  _116
REMARK   51  A    between atoms: _115  and  _118
REMARK   52  A    between atoms: _118  and  _119
REMARK   53  A    between atoms: _119  and  _120
REMARK   54  A    between atoms: _122  and  _124
REMARK   55  A    between atoms: _124  and  _125
REMARK   56  A    between atoms: _124  and  _127
REMARK   57  A    between atoms: _127  and  _128
REMARK   58  A    between atoms: _131  and  _133
REMARK   59  A    between atoms: _133  and  _134
REMARK   60  A    between atoms: _136  and  _138
REMARK   61  A    between atoms: _138  and  _139
REMARK   62  A    between atoms: _141  and  _143
REMARK   63  A    between atoms: _143  and  _144
REMARK   64  A    between atoms: _143  and  _146
REMARK   65  A    between atoms: _146  and  _147
REMARK   66  A    between atoms: _150  and  _152
REMARK   67  A    between atoms: _152  and  _153
REMARK   68  A    between atoms: _155  and  _157
REMARK   69  A    between atoms: _157  and  _158
REMARK   70  A    between atoms: _160  and  _162
REMARK   71  A    between atoms: _162  and  _163
REMARK   72  A    between atoms: _162  and  _165
REMARK   73  A    between atoms: _165  and  _166
REMARK   74  A    between atoms: _169  and  _171
REMARK   75  A    between atoms: _171  and  _172
REMARK   76  A    between atoms: _171  and  _174
REMARK   77  A    between atoms: _174  and  _175
REMARK   78  A    between atoms: _178  and  _180
REMARK   79  A    between atoms: _180  and  _181
REMARK   80  A    between atoms: _180  and  _183
REMARK   81  A    between atoms: _183  and  _184
REMARK   82  A    between atoms: _188  and  _189
REMARK   83  A    between atoms: _194  and  _196
REMARK   84  A    between atoms: _196  and  _197
REMARK   85  A    between atoms: _196  and  _199
REMARK   86  A    between atoms: _202  and  _204
REMARK   87  A    between atoms: _204  and  _205
REMARK   88  A    between atoms: _204  and  _207
REMARK   89  A    between atoms: _207  and  _208
REMARK   90  A    between atoms: _213  and  _215
REMARK   91  A    between atoms: _215  and  _216
REMARK   92  A    between atoms: _215  and  _218
REMARK   93  A    between atoms: _218  and  _219
REMARK   94  A    between atoms: _222  and  _224
REMARK   95  A    between atoms: _224  and  _225
REMARK   96  A    between atoms: _224  and  _227
REMARK   97  A    between atoms: _227  and  _228
REMARK   98  A    between atoms: _231  and  _233
REMARK   99  A    between atoms: _233  and  _234
REMARK  100  A    between atoms: _236  and  _238
REMARK  101  A    between atoms: _238  and  _239
REMARK  102  A    between atoms: _238  and  _241
REMARK  103  A    between atoms: _241  and  _242
REMARK  104  A    between atoms: _242  and  _243
REMARK  105  A    between atoms: _243  and  _244
REMARK  106  A    between atoms: _253  and  _255
REMARK  107  A    between atoms: _255  and  _256
REMARK  108  A    between atoms: _255  and  _258
REMARK  109  A    between atoms: _258  and  _259
REMARK  110  A    between atoms: _264  and  _266
REMARK  111  A    between atoms: _266  and  _267
REMARK  112  A    between atoms: _266  and  _269
REMARK  113  A    between atoms: _269  and  _270
REMARK  114  A    between atoms: _270  and  _271
REMARK  115  A    between atoms: _271  and  _272
REMARK  116  A    between atoms: _281  and  _283
REMARK  117  A    between atoms: _283  and  _284
REMARK  118  A    between atoms: _283  and  _286
REMARK  119  A    between atoms: _286  and  _287
REMARK  120  A    between atoms: _290  and  _292
REMARK  121  A    between atoms: _292  and  _293
REMARK  122  A    between atoms: _292  and  _295
REMARK  123  A    between atoms: _295  and  _296
REMARK  124  A    between atoms: _299  and  _301
REMARK  125  A    between atoms: _301  and  _302
REMARK  126  A    between atoms: _301  and  _304
REMARK  127  A    between atoms: _304  and  _305
REMARK  128  A    between atoms: _308  and  _310
REMARK  129  A    between atoms: _310  and  _311
REMARK  130  A    between atoms: _310  and  _313
REMARK  131  A    between atoms: _313  and  _314
REMARK  132  A    between atoms: _317  and  _319
REMARK  133  A    between atoms: _319  and  _320
REMARK  134  A    between atoms: _322  and  _324
REMARK  135  A    between atoms: _324  and  _325
REMARK  136  A    between atoms: _328  and  _330
REMARK  137  A    between atoms: _330  and  _331
REMARK  138  A    between atoms: _330  and  _333
REMARK  139  A    between atoms: _333  and  _334
REMARK  140  A    between atoms: _337  and  _339
REMARK  141  A    between atoms: _339  and  _340
REMARK  142  A    between atoms: _339  and  _342
REMARK  143  A    between atoms: _342  and  _343
REMARK  144  A    between atoms: _346  and  _348
REMARK  145  A    between atoms: _348  and  _349
REMARK  146  A    between atoms: _348  and  _351
REMARK  147  A    between atoms: _351  and  _352
REMARK  148  A    between atoms: _355  and  _357
REMARK  149  A    between atoms: _357  and  _358
REMARK  150  A    between atoms: _357  and  _360
REMARK  151  A    between atoms: _363  and  _365
REMARK  152  A    between atoms: _365  and  _366
REMARK  153  A    between atoms: _365  and  _368
REMARK  154  A    between atoms: _368  and  _369
REMARK  155  A    between atoms: _369  and  _370
REMARK  156  A    between atoms: _370  and  _371
REMARK  157  A    between atoms: _371  and  _372
REMARK  158  A    between atoms: _376  and  _378
REMARK  159  A    between atoms: _378  and  _379
REMARK  160  A    between atoms: _378  and  _381
REMARK  161  A    between atoms: _381  and  _382
REMARK  162  A    between atoms: _382  and  _383
REMARK  163  A    between atoms: _385  and  _387
REMARK  164  A    between atoms: _387  and  _388
REMARK  165  A    between atoms: _387  and  _390
REMARK  166  A    between atoms: _390  and  _391
REMARK  167  A    between atoms: _394  and  _396
REMARK  168  A    between atoms: _396  and  _397
REMARK  169  A    between atoms: _399  and  _401
REMARK  170  A    between atoms: _401  and  _402
REMARK  171  A    between atoms: _404  and  _406
REMARK  172  A    between atoms: _406  and  _407
REMARK  173  A    between atoms: _406  and  _409
REMARK  174  A    between atoms: _409  and  _410
REMARK  175  A    between atoms: _413  and  _415
REMARK  176  A    between atoms: _415  and  _416
REMARK  177  A    between atoms: _418  and  _420
REMARK  178  A    between atoms: _420  and  _421
REMARK  179  A    between atoms: _423  and  _425
REMARK  180  A    between atoms: _425  and  _426
REMARK  181  A    between atoms: _425  and  _428
REMARK  182  A    between atoms: _428  and  _429
REMARK  183  A    between atoms: _432  and  _434
REMARK  184  A    between atoms: _434  and  _435
REMARK  185  A    between atoms: _434  and  _437
REMARK  186  A    between atoms: _440  and  _442
REMARK  187  A    between atoms: _442  and  _443
REMARK  188  A    between atoms: _442  and  _445
REMARK  189  A    between atoms: _445  and  _446
REMARK  190  A    between atoms: _449  and  _451
REMARK  191  A    between atoms: _451  and  _452
REMARK  192  A    between atoms: _451  and  _454
REMARK  193  A    between atoms: _454  and  _455
REMARK  194  A    between atoms: _459  and  _460
REMARK  195  A    between atoms: _465  and  _467
REMARK  196  A    between atoms: _467  and  _468
REMARK  197  A    between atoms: _467  and  _470
REMARK  198  A    between atoms: _473  and  _475
REMARK  199  A    between atoms: _475  and  _476
REMARK  200  A    between atoms: _475  and  _478
REMARK  201  A    between atoms: _478  and  _479
REMARK  202  A    between atoms: _484  and  _486
REMARK  203  A    between atoms: _486  and  _487
REMARK  204  A    between atoms: _486  and  _489
REMARK  205  A    between atoms: _489  and  _490
REMARK  206  A    between atoms: _493  and  _495
REMARK  207  A    between atoms: _495  and  _496
REMARK  208  A    between atoms: _495  and  _498
REMARK  209  A    between atoms: _498  and  _499
REMARK  210  A    between atoms: _502  and  _504
REMARK  211  A    between atoms: _504  and  _505
REMARK  212  A    between atoms: _507  and  _509
REMARK  213  A    between atoms: _509  and  _510
REMARK  214  A    between atoms: _509  and  _512
REMARK  215  A    between atoms: _512  and  _513
REMARK  216  A    between atoms: _513  and  _514
REMARK  217  A    between atoms: _514  and  _515
REMARK  218  A    between atoms: _524  and  _526
REMARK  219  A    between atoms: _526  and  _527
REMARK  220  A    between atoms: _526  and  _529
REMARK  221  A    between atoms: _529  and  _530
REMARK                            x       y       z     vdW  Elec       q    Type
REMARK                         _______ _______ _______ _____ _____    ______ ____
ROOT
ATOM      1  O   HOH     1       7.748 -13.511   0.220  0.00  0.00    +0.000 OA
ENDROOT
TORSDOF 0
REMARK  Name = ../refined-set-2016/4hla/4hla_pocket.pdb
REMARK  221 active torsions:
REMARK  status: ('A' for Active; 'I' for Inactive)
REMARK    1  A    between atoms: _1  and  _3
REMARK    2  A    between atoms: _3  and  _4
REMARK    3  A    between atoms: _3  and  _6
REMARK    4  A    between atoms: _6  and  _7
REMARK    5  A    between atoms: _7  and  _8
REMARK    6  A    between atoms: _8  and  _9
REMARK    7  A    between atoms: _18  and  _20
REMARK    8  A    between atoms: _20  and  _21
REMARK    9  A    between atoms: _20  and  _23
REMARK   10  A    between atoms: _23  and  _24
REMARK   11  A    between atoms: _27  and  _29
REMARK   12  A    between atoms: _29  and  _30
REMARK   13  A    between atoms: _29  and  _32
REMARK   14  A    between atoms: _32  and  _33
REMARK   15  A    between atoms: _36  and  _38
REMARK   16  A    between atoms: _38  and  _39
REMARK   17  A    between atoms: _38  and  _41
REMARK   18  A    between atoms: _41  and  _42
REMARK   19  A    between atoms: _45  and  _47
REMARK   20  A    between atoms: _47  and  _48
REMARK   21  A    between atoms: _47  and  _50
REMARK   22  A    between atoms: _50  and  _51
REMARK   23  A    between atoms: _54  and  _56
REMARK   24  A    between atoms: _56  and  _57
REMARK   25  A    between atoms: _59  and  _61
REMARK   26  A    between atoms: _61  and  _62
REMARK   27  A    between atoms: _65  and  _67
REMARK   28  A    between atoms: _67  and  _68
REMARK   29  A    between atoms: _67  and  _70
REMARK   30  A    between atoms: _70  and  _71
REMARK   31  A    between atoms: _74  and  _76
REMARK   32  A    between atoms: _76  and  _77
REMARK   33  A    between atoms: _76  and  _79
REMARK   34  A    between atoms: _79  and  _80
REMARK   35  A    between atoms: _83  and  _85
REMARK   36  A    between atoms: _85  and  _86
REMARK   37  A    between atoms: _85  and  _88
REMARK   38  A    between atoms: _88  and  _89
REMARK   39  A    between atoms: _92  and  _94
REMARK   40  A    between atoms: _94  and  _95
REMARK   41  A    between atoms: _94  and  _97
REMARK   42  A    between atoms: _100  and  _102
REMARK   43  A    between atoms: _102  and  _103
REMARK   44  A    between atoms: _102  and  _105
REMARK   45  A    between atoms: _105  and  _106
REMARK   46  A    between atoms: _106  and  _107
REMARK   47  A    between atoms: _107  and  _108
REMARK   48  A    between atoms: _108  and  _109
REMARK   49  A    between atoms: _113  and  _115
REMARK   50  A    between atoms: _115  and  _116
REMARK   51  A    between atoms: _115  and  _118
REMARK   52  A    between atoms: _118  and  _119
REMARK   53  A    between atoms: _119  and  _120
REMARK   54  A    between atoms: _122  and  _124
REMARK   55  A    between atoms: _124  and  _125
REMARK   56  A    between atoms: _124  and  _127
REMARK   57  A    between atoms: _127  and  _128
REMARK   58  A    between atoms: _131  and  _133
REMARK   59  A    between atoms: _133  and  _134
REMARK   60  A    between atoms: _136  and  _138
REMARK   61  A    between atoms: _138  and  _139
REMARK   62  A    between atoms: _141  and  _143
REMARK   63  A    between atoms: _143  and  _144
REMARK   64  A    between atoms: _143  and  _146
REMARK   65  A    between atoms: _146  and  _147
REMARK   66  A    between atoms: _150  and  _152
REMARK   67  A    between atoms: _152  and  _153
REMARK   68  A    between atoms: _155  and  _157
REMARK   69  A    between atoms: _157  and  _158
REMARK   70  A    between atoms: _160  and  _162
REMARK   71  A    between atoms: _162  and  _163
REMARK   72  A    between atoms: _162  and  _165
REMARK   73  A    between atoms: _165  and  _166
REMARK   74  A    between atoms: _169  and  _171
REMARK   75  A    between atoms: _171  and  _172
REMARK   76  A    between atoms: _171  and  _174
REMARK   77  A    between atoms: _174  and  _175
REMARK   78  A    between atoms: _178  and  _180
REMARK   79  A    between atoms: _180  and  _181
REMARK   80  A    between atoms: _180  and  _183
REMARK   81  A    between atoms: _183  and  _184
REMARK   82  A    between atoms: _188  and  _189
REMARK   83  A    between atoms: _194  and  _196
REMARK   84  A    between atoms: _196  and  _197
REMARK   85  A    between atoms: _196  and  _199
REMARK   86  A    between atoms: _202  and  _204
REMARK   87  A    between atoms: _204  and  _205
REMARK   88  A    between atoms: _204  and  _207
REMARK   89  A    between atoms: _207  and  _208
REMARK   90  A    between atoms: _213  and  _215
REMARK   91  A    between atoms: _215  and  _216
REMARK   92  A    between atoms: _215  and  _218
REMARK   93  A    between atoms: _218  and  _219
REMARK   94  A    between atoms: _222  and  _224
REMARK   95  A    between atoms: _224  and  _225
REMARK   96  A    between atoms: _224  and  _227
REMARK   97  A    between atoms: _227  and  _228
REMARK   98  A    between atoms: _231  and  _233
REMARK   99  A    between atoms: _233  and  _234
REMARK  100  A    between atoms: _236  and  _238
REMARK  101  A    between atoms: _238  and  _239
REMARK  102  A    between atoms: _238  and  _241
REMARK  103  A    between atoms: _241  and  _242
REMARK  104  A    between atoms: _242  and  _243
REMARK  105  A    between atoms: _243  and  _244
REMARK  106  A    between atoms: _253  and  _255
REMARK  107  A    between atoms: _255  and  _256
REMARK  108  A    between atoms: _255  and  _258
REMARK  109  A    between atoms: _258  and  _259
REMARK  110  A    between atoms: _264  and  _266
REMARK  111  A    between atoms: _266  and  _267
REMARK  112  A    between atoms: _266  and  _269
REMARK  113  A    between atoms: _269  and  _270
REMARK  114  A    between atoms: _270  and  _271
REMARK  115  A    between atoms: _271  and  _272
REMARK  116  A    between atoms: _281  and  _283
REMARK  117  A    between atoms: _283  and  _284
REMARK  118  A    between atoms: _283  and  _286
REMARK  119  A    between atoms: _286  and  _287
REMARK  120  A    between atoms: _290  and  _292
REMARK  121  A    between atoms: _292  and  _293
REMARK  122  A    between atoms: _292  and  _295
REMARK  123  A    between atoms: _295  and  _296
REMARK  124  A    between atoms: _299  and  _301
REMARK  125  A    between atoms: _301  and  _302
REMARK  126  A    between atoms: _301  and  _304
REMARK  127  A    between atoms: _304  and  _305
REMARK  128  A    between atoms: _308  and  _310
REMARK  129  A    between atoms: _310  and  _311
REMARK  130  A    between atoms: _310  and  _313
REMARK  131  A    between atoms: _313  and  _314
REMARK  132  A    between atoms: _317  and  _319
REMARK  133  A    between atoms: _319  and  _320
REMARK  134  A    between atoms: _322  and  _324
REMARK  135  A    between atoms: _324  and  _325
REMARK  136  A    between atoms: _328  and  _330
REMARK  137  A    between atoms: _330  and  _331
REMARK  138  A    between atoms: _330  and  _333
REMARK  139  A    between atoms: _333  and  _334
REMARK  140  A    between atoms: _337  and  _339
REMARK  141  A    between atoms: _339  and  _340
REMARK  142  A    between atoms: _339  and  _342
REMARK  143  A    between atoms: _342  and  _343
REMARK  144  A    between atoms: _346  and  _348
REMARK  145  A    between atoms: _348  and  _349
REMARK  146  A    between atoms: _348  and  _351
REMARK  147  A    between atoms: _351  and  _352
REMARK  148  A    between atoms: _355  and  _357
REMARK  149  A    between atoms: _357  and  _358
REMARK  150  A    between atoms: _357  and  _360
REMARK  151  A    between atoms: _363  and  _365
REMARK  152  A    between atoms: _365  and  _366
REMARK  153  A    between atoms: _365  and  _368
REMARK  154  A    between atoms: _368  and  _369
REMARK  155  A    between atoms: _369  and  _370
REMARK  156  A    between atoms: _370  and  _371
REMARK  157  A    between atoms: _371  and  _372
REMARK  158  A    between atoms: _376  and  _378
REMARK  159  A    between atoms: _378  and  _379
REMARK  160  A    between atoms: _378  and  _381
REMARK  161  A    between atoms: _381  and  _382
REMARK  162  A    between atoms: _382  and  _383
REMARK  163  A    between atoms: _385  and  _387
REMARK  164  A    between atoms: _387  and  _388
REMARK  165  A    between atoms: _387  and  _390
REMARK  166  A    between atoms: _390  and  _391
REMARK  167  A    between atoms: _394  and  _396
REMARK  168  A    between atoms: _396  and  _397
REMARK  169  A    between atoms: _399  and  _401
REMARK  170  A    between atoms: _401  and  _402
REMARK  171  A    between atoms: _404  and  _406
REMARK  172  A    between atoms: _406  and  _407
REMARK  173  A    between atoms: _406  and  _409
REMARK  174  A    between atoms: _409  and  _410
REMARK  175  A    between atoms: _413  and  _415
REMARK  176  A    between atoms: _415  and  _416
REMARK  177  A    between atoms: _418  and  _420
REMARK  178  A    between atoms: _420  and  _421
REMARK  179  A    between atoms: _423  and  _425
REMARK  180  A    between atoms: _425  and  _426
REMARK  181  A    between atoms: _425  and  _428
REMARK  182  A    between atoms: _428  and  _429
REMARK  183  A    between atoms: _432  and  _434
REMARK  184  A    between atoms: _434  and  _435
REMARK  185  A    between atoms: _434  and  _437
REMARK  186  A    between atoms: _440  and  _442
REMARK  187  A    between atoms: _442  and  _443
REMARK  188  A    between atoms: _442  and  _445
REMARK  189  A    between atoms: _445  and  _446
REMARK  190  A    between atoms: _449  and  _451
REMARK  191  A    between atoms: _451  and  _452
REMARK  192  A    between atoms: _451  and  _454
REMARK  193  A    between atoms: _454  and  _455
REMARK  194  A    between atoms: _459  and  _460
REMARK  195  A    between atoms: _465  and  _467
REMARK  196  A    between atoms: _467  and  _468
REMARK  197  A    between atoms: _467  and  _470
REMARK  198  A    between atoms: _473  and  _475
REMARK  199  A    between atoms: _475  and  _476
REMARK  200  A    between atoms: _475  and  _478
REMARK  201  A    between atoms: _478  and  _479
REMARK  202  A    between atoms: _484  and  _486
REMARK  203  A    between atoms: _486  and  _487
REMARK  204  A    between atoms: _486  and  _489
REMARK  205  A    between atoms: _489  and  _490
REMARK  206  A    between atoms: _493  and  _495
REMARK  207  A    between atoms: _495  and  _496
REMARK  208  A    between atoms: _495  and  _498
REMARK  209  A    between atoms: _498  and  _499
REMARK  210  A    between atoms: _502  and  _504
REMARK  211  A    between atoms: _504  and  _505
REMARK  212  A    between atoms: _507  and  _509
REMARK  213  A    between atoms: _509  and  _510
REMARK  214  A    between atoms: _509  and  _512
REMARK  215  A    between atoms: _512  and  _513
REMARK  216  A    between atoms: _513  and  _514
REMARK  217  A    between atoms: _514  and  _515
REMARK  218  A    between atoms: _524  and  _526
REMARK  219  A    between atoms: _526  and  _527
REMARK  220  A    between atoms: _526  and  _529
REMARK  221  A    between atoms: _529  and  _530
REMARK                            x       y       z     vdW  Elec       q    Type
REMARK                         _______ _______ _______ _____ _____    ______ ____
ROOT
ATOM      1  O   HOH     1       9.121 -23.856 -11.297  0.00  0.00    +0.000 OA
ENDROOT
TORSDOF 0
REMARK  Name = ../refined-set-2016/4hla/4hla_pocket.pdb
REMARK  221 active torsions:
REMARK  status: ('A' for Active; 'I' for Inactive)
REMARK    1  A    between atoms: _1  and  _3
REMARK    2  A    between atoms: _3  and  _4
REMARK    3  A    between atoms: _3  and  _6
REMARK    4  A    between atoms: _6  and  _7
REMARK    5  A    between atoms: _7  and  _8
REMARK    6  A    between atoms: _8  and  _9
REMARK    7  A    between atoms: _18  and  _20
REMARK    8  A    between atoms: _20  and  _21
REMARK    9  A    between atoms: _20  and  _23
REMARK   10  A    between atoms: _23  and  _24
REMARK   11  A    between atoms: _27  and  _29
REMARK   12  A    between atoms: _29  and  _30
REMARK   13  A    between atoms: _29  and  _32
REMARK   14  A    between atoms: _32  and  _33
REMARK   15  A    between atoms: _36  and  _38
REMARK   16  A    between atoms: _38  and  _39
REMARK   17  A    between atoms: _38  and  _41
REMARK   18  A    between atoms: _41  and  _42
REMARK   19  A    between atoms: _45  and  _47
REMARK   20  A    between atoms: _47  and  _48
REMARK   21  A    between atoms: _47  and  _50
REMARK   22  A    between atoms: _50  and  _51
REMARK   23  A    between atoms: _54  and  _56
REMARK   24  A    between atoms: _56  and  _57
REMARK   25  A    between atoms: _59  and  _61
REMARK   26  A    between atoms: _61  and  _62
REMARK   27  A    between atoms: _65  and  _67
REMARK   28  A    between atoms: _67  and  _68
REMARK   29  A    between atoms: _67  and  _70
REMARK   30  A    between atoms: _70  and  _71
REMARK   31  A    between atoms: _74  and  _76
REMARK   32  A    between atoms: _76  and  _77
REMARK   33  A    between atoms: _76  and  _79
REMARK   34  A    between atoms: _79  and  _80
REMARK   35  A    between atoms: _83  and  _85
REMARK   36  A    between atoms: _85  and  _86
REMARK   37  A    between atoms: _85  and  _88
REMARK   38  A    between atoms: _88  and  _89
REMARK   39  A    between atoms: _92  and  _94
REMARK   40  A    between atoms: _94  and  _95
REMARK   41  A    between atoms: _94  and  _97
REMARK   42  A    between atoms: _100  and  _102
REMARK   43  A    between atoms: _102  and  _103
REMARK   44  A    between atoms: _102  and  _105
REMARK   45  A    between atoms: _105  and  _106
REMARK   46  A    between atoms: _106  and  _107
REMARK   47  A    between atoms: _107  and  _108
REMARK   48  A    between atoms: _108  and  _109
REMARK   49  A    between atoms: _113  and  _115
REMARK   50  A    between atoms: _115  and  _116
REMARK   51  A    between atoms: _115  and  _118
REMARK   52  A    between atoms: _118  and  _119
REMARK   53  A    between atoms: _119  and  _120
REMARK   54  A    between atoms: _122  and  _124
REMARK   55  A    between atoms: _124  and  _125
REMARK   56  A    between atoms: _124  and  _127
REMARK   57  A    between atoms: _127  and  _128
REMARK   58  A    between atoms: _131  and  _133
REMARK   59  A    between atoms: _133  and  _134
REMARK   60  A    between atoms: _136  and  _138
REMARK   61  A    between atoms: _138  and  _139
REMARK   62  A    between atoms: _141  and  _143
REMARK   63  A    between atoms: _143  and  _144
REMARK   64  A    between atoms: _143  and  _146
REMARK   65  A    between atoms: _146  and  _147
REMARK   66  A    between atoms: _150  and  _152
REMARK   67  A    between atoms: _152  and  _153
REMARK   68  A    between atoms: _155  and  _157
REMARK   69  A    between atoms: _157  and  _158
REMARK   70  A    between atoms: _160  and  _162
REMARK   71  A    between atoms: _162  and  _163
REMARK   72  A    between atoms: _162  and  _165
REMARK   73  A    between atoms: _165  and  _166
REMARK   74  A    between atoms: _169  and  _171
REMARK   75  A    between atoms: _171  and  _172
REMARK   76  A    between atoms: _171  and  _174
REMARK   77  A    between atoms: _174  and  _175
REMARK   78  A    between atoms: _178  and  _180
REMARK   79  A    between atoms: _180  and  _181
REMARK   80  A    between atoms: _180  and  _183
REMARK   81  A    between atoms: _183  and  _184
REMARK   82  A    between atoms: _188  and  _189
REMARK   83  A    between atoms: _194  and  _196
REMARK   84  A    between atoms: _196  and  _197
REMARK   85  A    between atoms: _196  and  _199
REMARK   86  A    between atoms: _202  and  _204
REMARK   87  A    between atoms: _204  and  _205
REMARK   88  A    between atoms: _204  and  _207
REMARK   89  A    between atoms: _207  and  _208
REMARK   90  A    between atoms: _213  and  _215
REMARK   91  A    between atoms: _215  and  _216
REMARK   92  A    between atoms: _215  and  _218
REMARK   93  A    between atoms: _218  and  _219
REMARK   94  A    between atoms: _222  and  _224
REMARK   95  A    between atoms: _224  and  _225
REMARK   96  A    between atoms: _224  and  _227
REMARK   97  A    between atoms: _227  and  _228
REMARK   98  A    between atoms: _231  and  _233
REMARK   99  A    between atoms: _233  and  _234
REMARK  100  A    between atoms: _236  and  _238
REMARK  101  A    between atoms: _238  and  _239
REMARK  102  A    between atoms: _238  and  _241
REMARK  103  A    between atoms: _241  and  _242
REMARK  104  A    between atoms: _242  and  _243
REMARK  105  A    between atoms: _243  and  _244
REMARK  106  A    between atoms: _253  and  _255
REMARK  107  A    between atoms: _255  and  _256
REMARK  108  A    between atoms: _255  and  _258
REMARK  109  A    between atoms: _258  and  _259
REMARK  110  A    between atoms: _264  and  _266
REMARK  111  A    between atoms: _266  and  _267
REMARK  112  A    between atoms: _266  and  _269
REMARK  113  A    between atoms: _269  and  _270
REMARK  114  A    between atoms: _270  and  _271
REMARK  115  A    between atoms: _271  and  _272
REMARK  116  A    between atoms: _281  and  _283
REMARK  117  A    between atoms: _283  and  _284
REMARK  118  A    between atoms: _283  and  _286
REMARK  119  A    between atoms: _286  and  _287
REMARK  120  A    between atoms: _290  and  _292
REMARK  121  A    between atoms: _292  and  _293
REMARK  122  A    between atoms: _292  and  _295
REMARK  123  A    between atoms: _295  and  _296
REMARK  124  A    between atoms: _299  and  _301
REMARK  125  A    between atoms: _301  and  _302
REMARK  126  A    between atoms: _301  and  _304
REMARK  127  A    between atoms: _304  and  _305
REMARK  128  A    between atoms: _308  and  _310
REMARK  129  A    between atoms: _310  and  _311
REMARK  130  A    between atoms: _310  and  _313
REMARK  131  A    between atoms: _313  and  _314
REMARK  132  A    between atoms: _317  and  _319
REMARK  133  A    between atoms: _319  and  _320
REMARK  134  A    between atoms: _322  and  _324
REMARK  135  A    between atoms: _324  and  _325
REMARK  136  A    between atoms: _328  and  _330
REMARK  137  A    between atoms: _330  and  _331
REMARK  138  A    between atoms: _330  and  _333
REMARK  139  A    between atoms: _333  and  _334
REMARK  140  A    between atoms: _337  and  _339
REMARK  141  A    between atoms: _339  and  _340
REMARK  142  A    between atoms: _339  and  _342
REMARK  143  A    between atoms: _342  and  _343
REMARK  144  A    between atoms: _346  and  _348
REMARK  145  A    between atoms: _348  and  _349
REMARK  146  A    between atoms: _348  and  _351
REMARK  147  A    between atoms: _351  and  _352
REMARK  148  A    between atoms: _355  and  _357
REMARK  149  A    between atoms: _357  and  _358
REMARK  150  A    between atoms: _357  and  _360
REMARK  151  A    between atoms: _363  and  _365
REMARK  152  A    between atoms: _365  and  _366
REMARK  153  A    between atoms: _365  and  _368
REMARK  154  A    between atoms: _368  and  _369
REMARK  155  A    between atoms: _369  and  _370
REMARK  156  A    between atoms: _370  and  _371
REMARK  157  A    between atoms: _371  and  _372
REMARK  158  A    between atoms: _376  and  _378
REMARK  159  A    between atoms: _378  and  _379
REMARK  160  A    between atoms: _378  and  _381
REMARK  161  A    between atoms: _381  and  _382
REMARK  162  A    between atoms: _382  and  _383
REMARK  163  A    between atoms: _385  and  _387
REMARK  164  A    between atoms: _387  and  _388
REMARK  165  A    between atoms: _387  and  _390
REMARK  166  A    between atoms: _390  and  _391
REMARK  167  A    between atoms: _394  and  _396
REMARK  168  A    between atoms: _396  and  _397
REMARK  169  A    between atoms: _399  and  _401
REMARK  170  A    between atoms: _401  and  _402
REMARK  171  A    between atoms: _404  and  _406
REMARK  172  A    between atoms: _406  and  _407
REMARK  173  A    between atoms: _406  and  _409
REMARK  174  A    between atoms: _409  and  _410
REMARK  175  A    between atoms: _413  and  _415
REMARK  176  A    between atoms: _415  and  _416
REMARK  177  A    between atoms: _418  and  _420
REMARK  178  A    between atoms: _420  and  _421
REMARK  179  A    between atoms: _423  and  _425
REMARK  180  A    between atoms: _425  and  _426
REMARK  181  A    between atoms: _425  and  _428
REMARK  182  A    between atoms: _428  and  _429
REMARK  183  A    between atoms: _432  and  _434
REMARK  184  A    between atoms: _434  and  _435
REMARK  185  A    between atoms: _434  and  _437
REMARK  186  A    between atoms: _440  and  _442
REMARK  187  A    between atoms: _442  and  _443
REMARK  188  A    between atoms: _442  and  _445
REMARK  189  A    between atoms: _445  and  _446
REMARK  190  A    between atoms: _449  and  _451
REMARK  191  A    between atoms: _451  and  _452
REMARK  192  A    between atoms: _451  and  _454
REMARK  193  A    between atoms: _454  and  _455
REMARK  194  A    between atoms: _459  and  _460
REMARK  195  A    between atoms: _465  and  _467
REMARK  196  A    between atoms: _467  and  _468
REMARK  197  A    between atoms: _467  and  _470
REMARK  198  A    between atoms: _473  and  _475
REMARK  199  A    between atoms: _475  and  _476
REMARK  200  A    between atoms: _475  and  _478
REMARK  201  A    between atoms: _478  and  _479
REMARK  202  A    between atoms: _484  and  _486
REMARK  203  A    between atoms: _486  and  _487
REMARK  204  A    between atoms: _486  and  _489
REMARK  205  A    between atoms: _489  and  _490
REMARK  206  A    between atoms: _493  and  _495
REMARK  207  A    between atoms: _495  and  _496
REMARK  208  A    between atoms: _495  and  _498
REMARK  209  A    between atoms: _498  and  _499
REMARK  210  A    between atoms: _502  and  _504
REMARK  211  A    between atoms: _504  and  _505
REMARK  212  A    between atoms: _507  and  _509
REMARK  213  A    between atoms: _509  and  _510
REMARK  214  A    between atoms: _509  and  _512
REMARK  215  A    between atoms: _512  and  _513
REMARK  216  A    between atoms: _513  and  _514
REMARK  217  A    between atoms: _514  and  _515
REMARK  218  A    between atoms: _524  and  _526
REMARK  219  A    between atoms: _526  and  _527
REMARK  220  A    between atoms: _526  and  _529
REMARK  221  A    between atoms: _529  and  _530
REMARK                            x       y       z     vdW  Elec       q    Type
REMARK                         _______ _______ _______ _____ _____    ______ ____
ROOT
ATOM      1  O   HOH     1       0.599 -12.199  -2.194  0.00  0.00    +0.000 OA
ENDROOT
TORSDOF 0
REMARK  Name = ../refined-set-2016/4hla/4hla_pocket.pdb
REMARK  221 active torsions:
REMARK  status: ('A' for Active; 'I' for Inactive)
REMARK    1  A    between atoms: _1  and  _3
REMARK    2  A    between atoms: _3  and  _4
REMARK    3  A    between atoms: _3  and  _6
REMARK    4  A    between atoms: _6  and  _7
REMARK    5  A    between atoms: _7  and  _8
REMARK    6  A    between atoms: _8  and  _9
REMARK    7  A    between atoms: _18  and  _20
REMARK    8  A    between atoms: _20  and  _21
REMARK    9  A    between atoms: _20  and  _23
REMARK   10  A    between atoms: _23  and  _24
REMARK   11  A    between atoms: _27  and  _29
REMARK   12  A    between atoms: _29  and  _30
REMARK   13  A    between atoms: _29  and  _32
REMARK   14  A    between atoms: _32  and  _33
REMARK   15  A    between atoms: _36  and  _38
REMARK   16  A    between atoms: _38  and  _39
REMARK   17  A    between atoms: _38  and  _41
REMARK   18  A    between atoms: _41  and  _42
REMARK   19  A    between atoms: _45  and  _47
REMARK   20  A    between atoms: _47  and  _48
REMARK   21  A    between atoms: _47  and  _50
REMARK   22  A    between atoms: _50  and  _51
REMARK   23  A    between atoms: _54  and  _56
REMARK   24  A    between atoms: _56  and  _57
REMARK   25  A    between atoms: _59  and  _61
REMARK   26  A    between atoms: _61  and  _62
REMARK   27  A    between atoms: _65  and  _67
REMARK   28  A    between atoms: _67  and  _68
REMARK   29  A    between atoms: _67  and  _70
REMARK   30  A    between atoms: _70  and  _71
REMARK   31  A    between atoms: _74  and  _76
REMARK   32  A    between atoms: _76  and  _77
REMARK   33  A    between atoms: _76  and  _79
REMARK   34  A    between atoms: _79  and  _80
REMARK   35  A    between atoms: _83  and  _85
REMARK   36  A    between atoms: _85  and  _86
REMARK   37  A    between atoms: _85  and  _88
REMARK   38  A    between atoms: _88  and  _89
REMARK   39  A    between atoms: _92  and  _94
REMARK   40  A    between atoms: _94  and  _95
REMARK   41  A    between atoms: _94  and  _97
REMARK   42  A    between atoms: _100  and  _102
REMARK   43  A    between atoms: _102  and  _103
REMARK   44  A    between atoms: _102  and  _105
REMARK   45  A    between atoms: _105  and  _106
REMARK   46  A    between atoms: _106  and  _107
REMARK   47  A    between atoms: _107  and  _108
REMARK   48  A    between atoms: _108  and  _109
REMARK   49  A    between atoms: _113  and  _115
REMARK   50  A    between atoms: _115  and  _116
REMARK   51  A    between atoms: _115  and  _118
REMARK   52  A    between atoms: _118  and  _119
REMARK   53  A    between atoms: _119  and  _120
REMARK   54  A    between atoms: _122  and  _124
REMARK   55  A    between atoms: _124  and  _125
REMARK   56  A    between atoms: _124  and  _127
REMARK   57  A    between atoms: _127  and  _128
REMARK   58  A    between atoms: _131  and  _133
REMARK   59  A    between atoms: _133  and  _134
REMARK   60  A    between atoms: _136  and  _138
REMARK   61  A    between atoms: _138  and  _139
REMARK   62  A    between atoms: _141  and  _143
REMARK   63  A    between atoms: _143  and  _144
REMARK   64  A    between atoms: _143  and  _146
REMARK   65  A    between atoms: _146  and  _147
REMARK   66  A    between atoms: _150  and  _152
REMARK   67  A    between atoms: _152  and  _153
REMARK   68  A    between atoms: _155  and  _157
REMARK   69  A    between atoms: _157  and  _158
REMARK   70  A    between atoms: _160  and  _162
REMARK   71  A    between atoms: _162  and  _163
REMARK   72  A    between atoms: _162  and  _165
REMARK   73  A    between atoms: _165  and  _166
REMARK   74  A    between atoms: _169  and  _171
REMARK   75  A    between atoms: _171  and  _172
REMARK   76  A    between atoms: _171  and  _174
REMARK   77  A    between atoms: _174  and  _175
REMARK   78  A    between atoms: _178  and  _180
REMARK   79  A    between atoms: _180  and  _181
REMARK   80  A    between atoms: _180  and  _183
REMARK   81  A    between atoms: _183  and  _184
REMARK   82  A    between atoms: _188  and  _189
REMARK   83  A    between atoms: _194  and  _196
REMARK   84  A    between atoms: _196  and  _197
REMARK   85  A    between atoms: _196  and  _199
REMARK   86  A    between atoms: _202  and  _204
REMARK   87  A    between atoms: _204  and  _205
REMARK   88  A    between atoms: _204  and  _207
REMARK   89  A    between atoms: _207  and  _208
REMARK   90  A    between atoms: _213  and  _215
REMARK   91  A    between atoms: _215  and  _216
REMARK   92  A    between atoms: _215  and  _218
REMARK   93  A    between atoms: _218  and  _219
REMARK   94  A    between atoms: _222  and  _224
REMARK   95  A    between atoms: _224  and  _225
REMARK   96  A    between atoms: _224  and  _227
REMARK   97  A    between atoms: _227  and  _228
REMARK   98  A    between atoms: _231  and  _233
REMARK   99  A    between atoms: _233  and  _234
REMARK  100  A    between atoms: _236  and  _238
REMARK  101  A    between atoms: _238  and  _239
REMARK  102  A    between atoms: _238  and  _241
REMARK  103  A    between atoms: _241  and  _242
REMARK  104  A    between atoms: _242  and  _243
REMARK  105  A    between atoms: _243  and  _244
REMARK  106  A    between atoms: _253  and  _255
REMARK  107  A    between atoms: _255  and  _256
REMARK  108  A    between atoms: _255  and  _258
REMARK  109  A    between atoms: _258  and  _259
REMARK  110  A    between atoms: _264  and  _266
REMARK  111  A    between atoms: _266  and  _267
REMARK  112  A    between atoms: _266  and  _269
REMARK  113  A    between atoms: _269  and  _270
REMARK  114  A    between atoms: _270  and  _271
REMARK  115  A    between atoms: _271  and  _272
REMARK  116  A    between atoms: _281  and  _283
REMARK  117  A    between atoms: _283  and  _284
REMARK  118  A    between atoms: _283  and  _286
REMARK  119  A    between atoms: _286  and  _287
REMARK  120  A    between atoms: _290  and  _292
REMARK  121  A    between atoms: _292  and  _293
REMARK  122  A    between atoms: _292  and  _295
REMARK  123  A    between atoms: _295  and  _296
REMARK  124  A    between atoms: _299  and  _301
REMARK  125  A    between atoms: _301  and  _302
REMARK  126  A    between atoms: _301  and  _304
REMARK  127  A    between atoms: _304  and  _305
REMARK  128  A    between atoms: _308  and  _310
REMARK  129  A    between atoms: _310  and  _311
REMARK  130  A    between atoms: _310  and  _313
REMARK  131  A    between atoms: _313  and  _314
REMARK  132  A    between atoms: _317  and  _319
REMARK  133  A    between atoms: _319  and  _320
REMARK  134  A    between atoms: _322  and  _324
REMARK  135  A    between atoms: _324  and  _325
REMARK  136  A    between atoms: _328  and  _330
REMARK  137  A    between atoms: _330  and  _331
REMARK  138  A    between atoms: _330  and  _333
REMARK  139  A    between atoms: _333  and  _334
REMARK  140  A    between atoms: _337  and  _339
REMARK  141  A    between atoms: _339  and  _340
REMARK  142  A    between atoms: _339  and  _342
REMARK  143  A    between atoms: _342  and  _343
REMARK  144  A    between atoms: _346  and  _348
REMARK  145  A    between atoms: _348  and  _349
REMARK  146  A    between atoms: _348  and  _351
REMARK  147  A    between atoms: _351  and  _352
REMARK  148  A    between atoms: _355  and  _357
REMARK  149  A    between atoms: _357  and  _358
REMARK  150  A    between atoms: _357  and  _360
REMARK  151  A    between atoms: _363  and  _365
REMARK  152  A    between atoms: _365  and  _366
REMARK  153  A    between atoms: _365  and  _368
REMARK  154  A    between atoms: _368  and  _369
REMARK  155  A    between atoms: _369  and  _370
REMARK  156  A    between atoms: _370  and  _371
REMARK  157  A    between atoms: _371  and  _372
REMARK  158  A    between atoms: _376  and  _378
REMARK  159  A    between atoms: _378  and  _379
REMARK  160  A    between atoms: _378  and  _381
REMARK  161  A    between atoms: _381  and  _382
REMARK  162  A    between atoms: _382  and  _383
REMARK  163  A    between atoms: _385  and  _387
REMARK  164  A    between atoms: _387  and  _388
REMARK  165  A    between atoms: _387  and  _390
REMARK  166  A    between atoms: _390  and  _391
REMARK  167  A    between atoms: _394  and  _396
REMARK  168  A    between atoms: _396  and  _397
REMARK  169  A    between atoms: _399  and  _401
REMARK  170  A    between atoms: _401  and  _402
REMARK  171  A    between atoms: _404  and  _406
REMARK  172  A    between atoms: _406  and  _407
REMARK  173  A    between atoms: _406  and  _409
REMARK  174  A    between atoms: _409  and  _410
REMARK  175  A    between atoms: _413  and  _415
REMARK  176  A    between atoms: _415  and  _416
REMARK  177  A    between atoms: _418  and  _420
REMARK  178  A    between atoms: _420  and  _421
REMARK  179  A    between atoms: _423  and  _425
REMARK  180  A    between atoms: _425  and  _426
REMARK  181  A    between atoms: _425  and  _428
REMARK  182  A    between atoms: _428  and  _429
REMARK  183  A    between atoms: _432  and  _434
REMARK  184  A    between atoms: _434  and  _435
REMARK  185  A    between atoms: _434  and  _437
REMARK  186  A    between atoms: _440  and  _442
REMARK  187  A    between atoms: _442  and  _443
REMARK  188  A    between atoms: _442  and  _445
REMARK  189  A    between atoms: _445  and  _446
REMARK  190  A    between atoms: _449  and  _451
REMARK  191  A    between atoms: _451  and  _452
REMARK  192  A    between atoms: _451  and  _454
REMARK  193  A    between atoms: _454  and  _455
REMARK  194  A    between atoms: _459  and  _460
REMARK  195  A    between atoms: _465  and  _467
REMARK  196  A    between atoms: _467  and  _468
REMARK  197  A    between atoms: _467  and  _470
REMARK  198  A    between atoms: _473  and  _475
REMARK  199  A    between atoms: _475  and  _476
REMARK  200  A    between atoms: _475  and  _478
REMARK  201  A    between atoms: _478  and  _479
REMARK  202  A    between atoms: _484  and  _486
REMARK  203  A    between atoms: _486  and  _487
REMARK  204  A    between atoms: _486  and  _489
REMARK  205  A    between atoms: _489  and  _490
REMARK  206  A    between atoms: _493  and  _495
REMARK  207  A    between atoms: _495  and  _496
REMARK  208  A    between atoms: _495  and  _498
REMARK  209  A    between atoms: _498  and  _499
REMARK  210  A    between atoms: _502  and  _504
REMARK  211  A    between atoms: _504  and  _505
REMARK  212  A    between atoms: _507  and  _509
REMARK  213  A    between atoms: _509  and  _510
REMARK  214  A    between atoms: _509  and  _512
REMARK  215  A    between atoms: _512  and  _513
REMARK  216  A    between atoms: _513  and  _514
REMARK  217  A    between atoms: _514  and  _515
REMARK  218  A    between atoms: _524  and  _526
REMARK  219  A    between atoms: _526  and  _527
REMARK  220  A    between atoms: _526  and  _529
REMARK  221  A    between atoms: _529  and  _530
REMARK                            x       y       z     vdW  Elec       q    Type
REMARK                         _______ _______ _______ _____ _____    ______ ____
ROOT
ATOM      1  O   HOH     1       0.836 -14.561  -3.357  0.00  0.00    +0.000 OA
ENDROOT
TORSDOF 0
REMARK  Name = ../refined-set-2016/4hla/4hla_pocket.pdb
REMARK  221 active torsions:
REMARK  status: ('A' for Active; 'I' for Inactive)
REMARK    1  A    between atoms: _1  and  _3
REMARK    2  A    between atoms: _3  and  _4
REMARK    3  A    between atoms: _3  and  _6
REMARK    4  A    between atoms: _6  and  _7
REMARK    5  A    between atoms: _7  and  _8
REMARK    6  A    between atoms: _8  and  _9
REMARK    7  A    between atoms: _18  and  _20
REMARK    8  A    between atoms: _20  and  _21
REMARK    9  A    between atoms: _20  and  _23
REMARK   10  A    between atoms: _23  and  _24
REMARK   11  A    between atoms: _27  and  _29
REMARK   12  A    between atoms: _29  and  _30
REMARK   13  A    between atoms: _29  and  _32
REMARK   14  A    between atoms: _32  and  _33
REMARK   15  A    between atoms: _36  and  _38
REMARK   16  A    between atoms: _38  and  _39
REMARK   17  A    between atoms: _38  and  _41
REMARK   18  A    between atoms: _41  and  _42
REMARK   19  A    between atoms: _45  and  _47
REMARK   20  A    between atoms: _47  and  _48
REMARK   21  A    between atoms: _47  and  _50
REMARK   22  A    between atoms: _50  and  _51
REMARK   23  A    between atoms: _54  and  _56
REMARK   24  A    between atoms: _56  and  _57
REMARK   25  A    between atoms: _59  and  _61
REMARK   26  A    between atoms: _61  and  _62
REMARK   27  A    between atoms: _65  and  _67
REMARK   28  A    between atoms: _67  and  _68
REMARK   29  A    between atoms: _67  and  _70
REMARK   30  A    between atoms: _70  and  _71
REMARK   31  A    between atoms: _74  and  _76
REMARK   32  A    between atoms: _76  and  _77
REMARK   33  A    between atoms: _76  and  _79
REMARK   34  A    between atoms: _79  and  _80
REMARK   35  A    between atoms: _83  and  _85
REMARK   36  A    between atoms: _85  and  _86
REMARK   37  A    between atoms: _85  and  _88
REMARK   38  A    between atoms: _88  and  _89
REMARK   39  A    between atoms: _92  and  _94
REMARK   40  A    between atoms: _94  and  _95
REMARK   41  A    between atoms: _94  and  _97
REMARK   42  A    between atoms: _100  and  _102
REMARK   43  A    between atoms: _102  and  _103
REMARK   44  A    between atoms: _102  and  _105
REMARK   45  A    between atoms: _105  and  _106
REMARK   46  A    between atoms: _106  and  _107
REMARK   47  A    between atoms: _107  and  _108
REMARK   48  A    between atoms: _108  and  _109
REMARK   49  A    between atoms: _113  and  _115
REMARK   50  A    between atoms: _115  and  _116
REMARK   51  A    between atoms: _115  and  _118
REMARK   52  A    between atoms: _118  and  _119
REMARK   53  A    between atoms: _119  and  _120
REMARK   54  A    between atoms: _122  and  _124
REMARK   55  A    between atoms: _124  and  _125
REMARK   56  A    between atoms: _124  and  _127
REMARK   57  A    between atoms: _127  and  _128
REMARK   58  A    between atoms: _131  and  _133
REMARK   59  A    between atoms: _133  and  _134
REMARK   60  A    between atoms: _136  and  _138
REMARK   61  A    between atoms: _138  and  _139
REMARK   62  A    between atoms: _141  and  _143
REMARK   63  A    between atoms: _143  and  _144
REMARK   64  A    between atoms: _143  and  _146
REMARK   65  A    between atoms: _146  and  _147
REMARK   66  A    between atoms: _150  and  _152
REMARK   67  A    between atoms: _152  and  _153
REMARK   68  A    between atoms: _155  and  _157
REMARK   69  A    between atoms: _157  and  _158
REMARK   70  A    between atoms: _160  and  _162
REMARK   71  A    between atoms: _162  and  _163
REMARK   72  A    between atoms: _162  and  _165
REMARK   73  A    between atoms: _165  and  _166
REMARK   74  A    between atoms: _169  and  _171
REMARK   75  A    between atoms: _171  and  _172
REMARK   76  A    between atoms: _171  and  _174
REMARK   77  A    between atoms: _174  and  _175
REMARK   78  A    between atoms: _178  and  _180
REMARK   79  A    between atoms: _180  and  _181
REMARK   80  A    between atoms: _180  and  _183
REMARK   81  A    between atoms: _183  and  _184
REMARK   82  A    between atoms: _188  and  _189
REMARK   83  A    between atoms: _194  and  _196
REMARK   84  A    between atoms: _196  and  _197
REMARK   85  A    between atoms: _196  and  _199
REMARK   86  A    between atoms: _202  and  _204
REMARK   87  A    between atoms: _204  and  _205
REMARK   88  A    between atoms: _204  and  _207
REMARK   89  A    between atoms: _207  and  _208
REMARK   90  A    between atoms: _213  and  _215
REMARK   91  A    between atoms: _215  and  _216
REMARK   92  A    between atoms: _215  and  _218
REMARK   93  A    between atoms: _218  and  _219
REMARK   94  A    between atoms: _222  and  _224
REMARK   95  A    between atoms: _224  and  _225
REMARK   96  A    between atoms: _224  and  _227
REMARK   97  A    between atoms: _227  and  _228
REMARK   98  A    between atoms: _231  and  _233
REMARK   99  A    between atoms: _233  and  _234
REMARK  100  A    between atoms: _236  and  _238
REMARK  101  A    between atoms: _238  and  _239
REMARK  102  A    between atoms: _238  and  _241
REMARK  103  A    between atoms: _241  and  _242
REMARK  104  A    between atoms: _242  and  _243
REMARK  105  A    between atoms: _243  and  _244
REMARK  106  A    between atoms: _253  and  _255
REMARK  107  A    between atoms: _255  and  _256
REMARK  108  A    between atoms: _255  and  _258
REMARK  109  A    between atoms: _258  and  _259
REMARK  110  A    between atoms: _264  and  _266
REMARK  111  A    between atoms: _266  and  _267
REMARK  112  A    between atoms: _266  and  _269
REMARK  113  A    between atoms: _269  and  _270
REMARK  114  A    between atoms: _270  and  _271
REMARK  115  A    between atoms: _271  and  _272
REMARK  116  A    between atoms: _281  and  _283
REMARK  117  A    between atoms: _283  and  _284
REMARK  118  A    between atoms: _283  and  _286
REMARK  119  A    between atoms: _286  and  _287
REMARK  120  A    between atoms: _290  and  _292
REMARK  121  A    between atoms: _292  and  _293
REMARK  122  A    between atoms: _292  and  _295
REMARK  123  A    between atoms: _295  and  _296
REMARK  124  A    between atoms: _299  and  _301
REMARK  125  A    between atoms: _301  and  _302
REMARK  126  A    between atoms: _301  and  _304
REMARK  127  A    between atoms: _304  and  _305
REMARK  128  A    between atoms: _308  and  _310
REMARK  129  A    between atoms: _310  and  _311
REMARK  130  A    between atoms: _310  and  _313
REMARK  131  A    between atoms: _313  and  _314
REMARK  132  A    between atoms: _317  and  _319
REMARK  133  A    between atoms: _319  and  _320
REMARK  134  A    between atoms: _322  and  _324
REMARK  135  A    between atoms: _324  and  _325
REMARK  136  A    between atoms: _328  and  _330
REMARK  137  A    between atoms: _330  and  _331
REMARK  138  A    between atoms: _330  and  _333
REMARK  139  A    between atoms: _333  and  _334
REMARK  140  A    between atoms: _337  and  _339
REMARK  141  A    between atoms: _339  and  _340
REMARK  142  A    between atoms: _339  and  _342
REMARK  143  A    between atoms: _342  and  _343
REMARK  144  A    between atoms: _346  and  _348
REMARK  145  A    between atoms: _348  and  _349
REMARK  146  A    between atoms: _348  and  _351
REMARK  147  A    between atoms: _351  and  _352
REMARK  148  A    between atoms: _355  and  _357
REMARK  149  A    between atoms: _357  and  _358
REMARK  150  A    between atoms: _357  and  _360
REMARK  151  A    between atoms: _363  and  _365
REMARK  152  A    between atoms: _365  and  _366
REMARK  153  A    between atoms: _365  and  _368
REMARK  154  A    between atoms: _368  and  _369
REMARK  155  A    between atoms: _369  and  _370
REMARK  156  A    between atoms: _370  and  _371
REMARK  157  A    between atoms: _371  and  _372
REMARK  158  A    between atoms: _376  and  _378
REMARK  159  A    between atoms: _378  and  _379
REMARK  160  A    between atoms: _378  and  _381
REMARK  161  A    between atoms: _381  and  _382
REMARK  162  A    between atoms: _382  and  _383
REMARK  163  A    between atoms: _385  and  _387
REMARK  164  A    between atoms: _387  and  _388
REMARK  165  A    between atoms: _387  and  _390
REMARK  166  A    between atoms: _390  and  _391
REMARK  167  A    between atoms: _394  and  _396
REMARK  168  A    between atoms: _396  and  _397
REMARK  169  A    between atoms: _399  and  _401
REMARK  170  A    between atoms: _401  and  _402
REMARK  171  A    between atoms: _404  and  _406
REMARK  172  A    between atoms: _406  and  _407
REMARK  173  A    between atoms: _406  and  _409
REMARK  174  A    between atoms: _409  and  _410
REMARK  175  A    between atoms: _413  and  _415
REMARK  176  A    between atoms: _415  and  _416
REMARK  177  A    between atoms: _418  and  _420
REMARK  178  A    between atoms: _420  and  _421
REMARK  179  A    between atoms: _423  and  _425
REMARK  180  A    between atoms: _425  and  _426
REMARK  181  A    between atoms: _425  and  _428
REMARK  182  A    between atoms: _428  and  _429
REMARK  183  A    between atoms: _432  and  _434
REMARK  184  A    between atoms: _434  and  _435
REMARK  185  A    between atoms: _434  and  _437
REMARK  186  A    between atoms: _440  and  _442
REMARK  187  A    between atoms: _442  and  _443
REMARK  188  A    between atoms: _442  and  _445
REMARK  189  A    between atoms: _445  and  _446
REMARK  190  A    between atoms: _449  and  _451
REMARK  191  A    between atoms: _451  and  _452
REMARK  192  A    between atoms: _451  and  _454
REMARK  193  A    between atoms: _454  and  _455
REMARK  194  A    between atoms: _459  and  _460
REMARK  195  A    between atoms: _465  and  _467
REMARK  196  A    between atoms: _467  and  _468
REMARK  197  A    between atoms: _467  and  _470
REMARK  198  A    between atoms: _473  and  _475
REMARK  199  A    between atoms: _475  and  _476
REMARK  200  A    between atoms: _475  and  _478
REMARK  201  A    between atoms: _478  and  _479
REMARK  202  A    between atoms: _484  and  _486
REMARK  203  A    between atoms: _486  and  _487
REMARK  204  A    between atoms: _486  and  _489
REMARK  205  A    between atoms: _489  and  _490
REMARK  206  A    between atoms: _493  and  _495
REMARK  207  A    between atoms: _495  and  _496
REMARK  208  A    between atoms: _495  and  _498
REMARK  209  A    between atoms: _498  and  _499
REMARK  210  A    between atoms: _502  and  _504
REMARK  211  A    between atoms: _504  and  _505
REMARK  212  A    between atoms: _507  and  _509
REMARK  213  A    between atoms: _509  and  _510
REMARK  214  A    between atoms: _509  and  _512
REMARK  215  A    between atoms: _512  and  _513
REMARK  216  A    between atoms: _513  and  _514
REMARK  217  A    between atoms: _514  and  _515
REMARK  218  A    between atoms: _524  and  _526
REMARK  219  A    between atoms: _526  and  _527
REMARK  220  A    between atoms: _526  and  _529
REMARK  221  A    between atoms: _529  and  _530
REMARK                            x       y       z     vdW  Elec       q    Type
REMARK                         _______ _______ _______ _____ _____    ______ ____
ROOT
ATOM      1  O   HOH     1       6.205 -20.538 -12.336  0.00  0.00    +0.000 OA
ENDROOT
TORSDOF 0
REMARK  Name = ../refined-set-2016/4hla/4hla_pocket.pdb
REMARK  221 active torsions:
REMARK  status: ('A' for Active; 'I' for Inactive)
REMARK    1  A    between atoms: _1  and  _3
REMARK    2  A    between atoms: _3  and  _4
REMARK    3  A    between atoms: _3  and  _6
REMARK    4  A    between atoms: _6  and  _7
REMARK    5  A    between atoms: _7  and  _8
REMARK    6  A    between atoms: _8  and  _9
REMARK    7  A    between atoms: _18  and  _20
REMARK    8  A    between atoms: _20  and  _21
REMARK    9  A    between atoms: _20  and  _23
REMARK   10  A    between atoms: _23  and  _24
REMARK   11  A    between atoms: _27  and  _29
REMARK   12  A    between atoms: _29  and  _30
REMARK   13  A    between atoms: _29  and  _32
REMARK   14  A    between atoms: _32  and  _33
REMARK   15  A    between atoms: _36  and  _38
REMARK   16  A    between atoms: _38  and  _39
REMARK   17  A    between atoms: _38  and  _41
REMARK   18  A    between atoms: _41  and  _42
REMARK   19  A    between atoms: _45  and  _47
REMARK   20  A    between atoms: _47  and  _48
REMARK   21  A    between atoms: _47  and  _50
REMARK   22  A    between atoms: _50  and  _51
REMARK   23  A    between atoms: _54  and  _56
REMARK   24  A    between atoms: _56  and  _57
REMARK   25  A    between atoms: _59  and  _61
REMARK   26  A    between atoms: _61  and  _62
REMARK   27  A    between atoms: _65  and  _67
REMARK   28  A    between atoms: _67  and  _68
REMARK   29  A    between atoms: _67  and  _70
REMARK   30  A    between atoms: _70  and  _71
REMARK   31  A    between atoms: _74  and  _76
REMARK   32  A    between atoms: _76  and  _77
REMARK   33  A    between atoms: _76  and  _79
REMARK   34  A    between atoms: _79  and  _80
REMARK   35  A    between atoms: _83  and  _85
REMARK   36  A    between atoms: _85  and  _86
REMARK   37  A    between atoms: _85  and  _88
REMARK   38  A    between atoms: _88  and  _89
REMARK   39  A    between atoms: _92  and  _94
REMARK   40  A    between atoms: _94  and  _95
REMARK   41  A    between atoms: _94  and  _97
REMARK   42  A    between atoms: _100  and  _102
REMARK   43  A    between atoms: _102  and  _103
REMARK   44  A    between atoms: _102  and  _105
REMARK   45  A    between atoms: _105  and  _106
REMARK   46  A    between atoms: _106  and  _107
REMARK   47  A    between atoms: _107  and  _108
REMARK   48  A    between atoms: _108  and  _109
REMARK   49  A    between atoms: _113  and  _115
REMARK   50  A    between atoms: _115  and  _116
REMARK   51  A    between atoms: _115  and  _118
REMARK   52  A    between atoms: _118  and  _119
REMARK   53  A    between atoms: _119  and  _120
REMARK   54  A    between atoms: _122  and  _124
REMARK   55  A    between atoms: _124  and  _125
REMARK   56  A    between atoms: _124  and  _127
REMARK   57  A    between atoms: _127  and  _128
REMARK   58  A    between atoms: _131  and  _133
REMARK   59  A    between atoms: _133  and  _134
REMARK   60  A    between atoms: _136  and  _138
REMARK   61  A    between atoms: _138  and  _139
REMARK   62  A    between atoms: _141  and  _143
REMARK   63  A    between atoms: _143  and  _144
REMARK   64  A    between atoms: _143  and  _146
REMARK   65  A    between atoms: _146  and  _147
REMARK   66  A    between atoms: _150  and  _152
REMARK   67  A    between atoms: _152  and  _153
REMARK   68  A    between atoms: _155  and  _157
REMARK   69  A    between atoms: _157  and  _158
REMARK   70  A    between atoms: _160  and  _162
REMARK   71  A    between atoms: _162  and  _163
REMARK   72  A    between atoms: _162  and  _165
REMARK   73  A    between atoms: _165  and  _166
REMARK   74  A    between atoms: _169  and  _171
REMARK   75  A    between atoms: _171  and  _172
REMARK   76  A    between atoms: _171  and  _174
REMARK   77  A    between atoms: _174  and  _175
REMARK   78  A    between atoms: _178  and  _180
REMARK   79  A    between atoms: _180  and  _181
REMARK   80  A    between atoms: _180  and  _183
REMARK   81  A    between atoms: _183  and  _184
REMARK   82  A    between atoms: _188  and  _189
REMARK   83  A    between atoms: _194  and  _196
REMARK   84  A    between atoms: _196  and  _197
REMARK   85  A    between atoms: _196  and  _199
REMARK   86  A    between atoms: _202  and  _204
REMARK   87  A    between atoms: _204  and  _205
REMARK   88  A    between atoms: _204  and  _207
REMARK   89  A    between atoms: _207  and  _208
REMARK   90  A    between atoms: _213  and  _215
REMARK   91  A    between atoms: _215  and  _216
REMARK   92  A    between atoms: _215  and  _218
REMARK   93  A    between atoms: _218  and  _219
REMARK   94  A    between atoms: _222  and  _224
REMARK   95  A    between atoms: _224  and  _225
REMARK   96  A    between atoms: _224  and  _227
REMARK   97  A    between atoms: _227  and  _228
REMARK   98  A    between atoms: _231  and  _233
REMARK   99  A    between atoms: _233  and  _234
REMARK  100  A    between atoms: _236  and  _238
REMARK  101  A    between atoms: _238  and  _239
REMARK  102  A    between atoms: _238  and  _241
REMARK  103  A    between atoms: _241  and  _242
REMARK  104  A    between atoms: _242  and  _243
REMARK  105  A    between atoms: _243  and  _244
REMARK  106  A    between atoms: _253  and  _255
REMARK  107  A    between atoms: _255  and  _256
REMARK  108  A    between atoms: _255  and  _258
REMARK  109  A    between atoms: _258  and  _259
REMARK  110  A    between atoms: _264  and  _266
REMARK  111  A    between atoms: _266  and  _267
REMARK  112  A    between atoms: _266  and  _269
REMARK  113  A    between atoms: _269  and  _270
REMARK  114  A    between atoms: _270  and  _271
REMARK  115  A    between atoms: _271  and  _272
REMARK  116  A    between atoms: _281  and  _283
REMARK  117  A    between atoms: _283  and  _284
REMARK  118  A    between atoms: _283  and  _286
REMARK  119  A    between atoms: _286  and  _287
REMARK  120  A    between atoms: _290  and  _292
REMARK  121  A    between atoms: _292  and  _293
REMARK  122  A    between atoms: _292  and  _295
REMARK  123  A    between atoms: _295  and  _296
REMARK  124  A    between atoms: _299  and  _301
REMARK  125  A    between atoms: _301  and  _302
REMARK  126  A    between atoms: _301  and  _304
REMARK  127  A    between atoms: _304  and  _305
REMARK  128  A    between atoms: _308  and  _310
REMARK  129  A    between atoms: _310  and  _311
REMARK  130  A    between atoms: _310  and  _313
REMARK  131  A    between atoms: _313  and  _314
REMARK  132  A    between atoms: _317  and  _319
REMARK  133  A    between atoms: _319  and  _320
REMARK  134  A    between atoms: _322  and  _324
REMARK  135  A    between atoms: _324  and  _325
REMARK  136  A    between atoms: _328  and  _330
REMARK  137  A    between atoms: _330  and  _331
REMARK  138  A    between atoms: _330  and  _333
REMARK  139  A    between atoms: _333  and  _334
REMARK  140  A    between atoms: _337  and  _339
REMARK  141  A    between atoms: _339  and  _340
REMARK  142  A    between atoms: _339  and  _342
REMARK  143  A    between atoms: _342  and  _343
REMARK  144  A    between atoms: _346  and  _348
REMARK  145  A    between atoms: _348  and  _349
REMARK  146  A    between atoms: _348  and  _351
REMARK  147  A    between atoms: _351  and  _352
REMARK  148  A    between atoms: _355  and  _357
REMARK  149  A    between atoms: _357  and  _358
REMARK  150  A    between atoms: _357  and  _360
REMARK  151  A    between atoms: _363  and  _365
REMARK  152  A    between atoms: _365  and  _366
REMARK  153  A    between atoms: _365  and  _368
REMARK  154  A    between atoms: _368  and  _369
REMARK  155  A    between atoms: _369  and  _370
REMARK  156  A    between atoms: _370  and  _371
REMARK  157  A    between atoms: _371  and  _372
REMARK  158  A    between atoms: _376  and  _378
REMARK  159  A    between atoms: _378  and  _379
REMARK  160  A    between atoms: _378  and  _381
REMARK  161  A    between atoms: _381  and  _382
REMARK  162  A    between atoms: _382  and  _383
REMARK  163  A    between atoms: _385  and  _387
REMARK  164  A    between atoms: _387  and  _388
REMARK  165  A    between atoms: _387  and  _390
REMARK  166  A    between atoms: _390  and  _391
REMARK  167  A    between atoms: _394  and  _396
REMARK  168  A    between atoms: _396  and  _397
REMARK  169  A    between atoms: _399  and  _401
REMARK  170  A    between atoms: _401  and  _402
REMARK  171  A    between atoms: _404  and  _406
REMARK  172  A    between atoms: _406  and  _407
REMARK  173  A    between atoms: _406  and  _409
REMARK  174  A    between atoms: _409  and  _410
REMARK  175  A    between atoms: _413  and  _415
REMARK  176  A    between atoms: _415  and  _416
REMARK  177  A    between atoms: _418  and  _420
REMARK  178  A    between atoms: _420  and  _421
REMARK  179  A    between atoms: _423  and  _425
REMARK  180  A    between atoms: _425  and  _426
REMARK  181  A    between atoms: _425  and  _428
REMARK  182  A    between atoms: _428  and  _429
REMARK  183  A    between atoms: _432  and  _434
REMARK  184  A    between atoms: _434  and  _435
REMARK  185  A    between atoms: _434  and  _437
REMARK  186  A    between atoms: _440  and  _442
REMARK  187  A    between atoms: _442  and  _443
REMARK  188  A    between atoms: _442  and  _445
REMARK  189  A    between atoms: _445  and  _446
REMARK  190  A    between atoms: _449  and  _451
REMARK  191  A    between atoms: _451  and  _452
REMARK  192  A    between atoms: _451  and  _454
REMARK  193  A    between atoms: _454  and  _455
REMARK  194  A    between atoms: _459  and  _460
REMARK  195  A    between atoms: _465  and  _467
REMARK  196  A    between atoms: _467  and  _468
REMARK  197  A    between atoms: _467  and  _470
REMARK  198  A    between atoms: _473  and  _475
REMARK  199  A    between atoms: _475  and  _476
REMARK  200  A    between atoms: _475  and  _478
REMARK  201  A    between atoms: _478  and  _479
REMARK  202  A    between atoms: _484  and  _486
REMARK  203  A    between atoms: _486  and  _487
REMARK  204  A    between atoms: _486  and  _489
REMARK  205  A    between atoms: _489  and  _490
REMARK  206  A    between atoms: _493  and  _495
REMARK  207  A    between atoms: _495  and  _496
REMARK  208  A    between atoms: _495  and  _498
REMARK  209  A    between atoms: _498  and  _499
REMARK  210  A    between atoms: _502  and  _504
REMARK  211  A    between atoms: _504  and  _505
REMARK  212  A    between atoms: _507  and  _509
REMARK  213  A    between atoms: _509  and  _510
REMARK  214  A    between atoms: _509  and  _512
REMARK  215  A    between atoms: _512  and  _513
REMARK  216  A    between atoms: _513  and  _514
REMARK  217  A    between atoms: _514  and  _515
REMARK  218  A    between atoms: _524  and  _526
REMARK  219  A    between atoms: _526  and  _527
REMARK  220  A    between atoms: _526  and  _529
REMARK  221  A    between atoms: _529  and  _530
REMARK                            x       y       z     vdW  Elec       q    Type
REMARK                         _______ _______ _______ _____ _____    ______ ____
ROOT
ATOM      1  O   HOH     1      14.852  -9.493   4.024  0.00  0.00    +0.000 OA
ENDROOT
TORSDOF 0
REMARK  Name = ../refined-set-2016/4hla/4hla_pocket.pdb
REMARK  221 active torsions:
REMARK  status: ('A' for Active; 'I' for Inactive)
REMARK    1  A    between atoms: _1  and  _3
REMARK    2  A    between atoms: _3  and  _4
REMARK    3  A    between atoms: _3  and  _6
REMARK    4  A    between atoms: _6  and  _7
REMARK    5  A    between atoms: _7  and  _8
REMARK    6  A    between atoms: _8  and  _9
REMARK    7  A    between atoms: _18  and  _20
REMARK    8  A    between atoms: _20  and  _21
REMARK    9  A    between atoms: _20  and  _23
REMARK   10  A    between atoms: _23  and  _24
REMARK   11  A    between atoms: _27  and  _29
REMARK   12  A    between atoms: _29  and  _30
REMARK   13  A    between atoms: _29  and  _32
REMARK   14  A    between atoms: _32  and  _33
REMARK   15  A    between atoms: _36  and  _38
REMARK   16  A    between atoms: _38  and  _39
REMARK   17  A    between atoms: _38  and  _41
REMARK   18  A    between atoms: _41  and  _42
REMARK   19  A    between atoms: _45  and  _47
REMARK   20  A    between atoms: _47  and  _48
REMARK   21  A    between atoms: _47  and  _50
REMARK   22  A    between atoms: _50  and  _51
REMARK   23  A    between atoms: _54  and  _56
REMARK   24  A    between atoms: _56  and  _57
REMARK   25  A    between atoms: _59  and  _61
REMARK   26  A    between atoms: _61  and  _62
REMARK   27  A    between atoms: _65  and  _67
REMARK   28  A    between atoms: _67  and  _68
REMARK   29  A    between atoms: _67  and  _70
REMARK   30  A    between atoms: _70  and  _71
REMARK   31  A    between atoms: _74  and  _76
REMARK   32  A    between atoms: _76  and  _77
REMARK   33  A    between atoms: _76  and  _79
REMARK   34  A    between atoms: _79  and  _80
REMARK   35  A    between atoms: _83  and  _85
REMARK   36  A    between atoms: _85  and  _86
REMARK   37  A    between atoms: _85  and  _88
REMARK   38  A    between atoms: _88  and  _89
REMARK   39  A    between atoms: _92  and  _94
REMARK   40  A    between atoms: _94  and  _95
REMARK   41  A    between atoms: _94  and  _97
REMARK   42  A    between atoms: _100  and  _102
REMARK   43  A    between atoms: _102  and  _103
REMARK   44  A    between atoms: _102  and  _105
REMARK   45  A    between atoms: _105  and  _106
REMARK   46  A    between atoms: _106  and  _107
REMARK   47  A    between atoms: _107  and  _108
REMARK   48  A    between atoms: _108  and  _109
REMARK   49  A    between atoms: _113  and  _115
REMARK   50  A    between atoms: _115  and  _116
REMARK   51  A    between atoms: _115  and  _118
REMARK   52  A    between atoms: _118  and  _119
REMARK   53  A    between atoms: _119  and  _120
REMARK   54  A    between atoms: _122  and  _124
REMARK   55  A    between atoms: _124  and  _125
REMARK   56  A    between atoms: _124  and  _127
REMARK   57  A    between atoms: _127  and  _128
REMARK   58  A    between atoms: _131  and  _133
REMARK   59  A    between atoms: _133  and  _134
REMARK   60  A    between atoms: _136  and  _138
REMARK   61  A    between atoms: _138  and  _139
REMARK   62  A    between atoms: _141  and  _143
REMARK   63  A    between atoms: _143  and  _144
REMARK   64  A    between atoms: _143  and  _146
REMARK   65  A    between atoms: _146  and  _147
REMARK   66  A    between atoms: _150  and  _152
REMARK   67  A    between atoms: _152  and  _153
REMARK   68  A    between atoms: _155  and  _157
REMARK   69  A    between atoms: _157  and  _158
REMARK   70  A    between atoms: _160  and  _162
REMARK   71  A    between atoms: _162  and  _163
REMARK   72  A    between atoms: _162  and  _165
REMARK   73  A    between atoms: _165  and  _166
REMARK   74  A    between atoms: _169  and  _171
REMARK   75  A    between atoms: _171  and  _172
REMARK   76  A    between atoms: _171  and  _174
REMARK   77  A    between atoms: _174  and  _175
REMARK   78  A    between atoms: _178  and  _180
REMARK   79  A    between atoms: _180  and  _181
REMARK   80  A    between atoms: _180  and  _183
REMARK   81  A    between atoms: _183  and  _184
REMARK   82  A    between atoms: _188  and  _189
REMARK   83  A    between atoms: _194  and  _196
REMARK   84  A    between atoms: _196  and  _197
REMARK   85  A    between atoms: _196  and  _199
REMARK   86  A    between atoms: _202  and  _204
REMARK   87  A    between atoms: _204  and  _205
REMARK   88  A    between atoms: _204  and  _207
REMARK   89  A    between atoms: _207  and  _208
REMARK   90  A    between atoms: _213  and  _215
REMARK   91  A    between atoms: _215  and  _216
REMARK   92  A    between atoms: _215  and  _218
REMARK   93  A    between atoms: _218  and  _219
REMARK   94  A    between atoms: _222  and  _224
REMARK   95  A    between atoms: _224  and  _225
REMARK   96  A    between atoms: _224  and  _227
REMARK   97  A    between atoms: _227  and  _228
REMARK   98  A    between atoms: _231  and  _233
REMARK   99  A    between atoms: _233  and  _234
REMARK  100  A    between atoms: _236  and  _238
REMARK  101  A    between atoms: _238  and  _239
REMARK  102  A    between atoms: _238  and  _241
REMARK  103  A    between atoms: _241  and  _242
REMARK  104  A    between atoms: _242  and  _243
REMARK  105  A    between atoms: _243  and  _244
REMARK  106  A    between atoms: _253  and  _255
REMARK  107  A    between atoms: _255  and  _256
REMARK  108  A    between atoms: _255  and  _258
REMARK  109  A    between atoms: _258  and  _259
REMARK  110  A    between atoms: _264  and  _266
REMARK  111  A    between atoms: _266  and  _267
REMARK  112  A    between atoms: _266  and  _269
REMARK  113  A    between atoms: _269  and  _270
REMARK  114  A    between atoms: _270  and  _271
REMARK  115  A    between atoms: _271  and  _272
REMARK  116  A    between atoms: _281  and  _283
REMARK  117  A    between atoms: _283  and  _284
REMARK  118  A    between atoms: _283  and  _286
REMARK  119  A    between atoms: _286  and  _287
REMARK  120  A    between atoms: _290  and  _292
REMARK  121  A    between atoms: _292  and  _293
REMARK  122  A    between atoms: _292  and  _295
REMARK  123  A    between atoms: _295  and  _296
REMARK  124  A    between atoms: _299  and  _301
REMARK  125  A    between atoms: _301  and  _302
REMARK  126  A    between atoms: _301  and  _304
REMARK  127  A    between atoms: _304  and  _305
REMARK  128  A    between atoms: _308  and  _310
REMARK  129  A    between atoms: _310  and  _311
REMARK  130  A    between atoms: _310  and  _313
REMARK  131  A    between atoms: _313  and  _314
REMARK  132  A    between atoms: _317  and  _319
REMARK  133  A    between atoms: _319  and  _320
REMARK  134  A    between atoms: _322  and  _324
REMARK  135  A    between atoms: _324  and  _325
REMARK  136  A    between atoms: _328  and  _330
REMARK  137  A    between atoms: _330  and  _331
REMARK  138  A    between atoms: _330  and  _333
REMARK  139  A    between atoms: _333  and  _334
REMARK  140  A    between atoms: _337  and  _339
REMARK  141  A    between atoms: _339  and  _340
REMARK  142  A    between atoms: _339  and  _342
REMARK  143  A    between atoms: _342  and  _343
REMARK  144  A    between atoms: _346  and  _348
REMARK  145  A    between atoms: _348  and  _349
REMARK  146  A    between atoms: _348  and  _351
REMARK  147  A    between atoms: _351  and  _352
REMARK  148  A    between atoms: _355  and  _357
REMARK  149  A    between atoms: _357  and  _358
REMARK  150  A    between atoms: _357  and  _360
REMARK  151  A    between atoms: _363  and  _365
REMARK  152  A    between atoms: _365  and  _366
REMARK  153  A    between atoms: _365  and  _368
REMARK  154  A    between atoms: _368  and  _369
REMARK  155  A    between atoms: _369  and  _370
REMARK  156  A    between atoms: _370  and  _371
REMARK  157  A    between atoms: _371  and  _372
REMARK  158  A    between atoms: _376  and  _378
REMARK  159  A    between atoms: _378  and  _379
REMARK  160  A    between atoms: _378  and  _381
REMARK  161  A    between atoms: _381  and  _382
REMARK  162  A    between atoms: _382  and  _383
REMARK  163  A    between atoms: _385  and  _387
REMARK  164  A    between atoms: _387  and  _388
REMARK  165  A    between atoms: _387  and  _390
REMARK  166  A    between atoms: _390  and  _391
REMARK  167  A    between atoms: _394  and  _396
REMARK  168  A    between atoms: _396  and  _397
REMARK  169  A    between atoms: _399  and  _401
REMARK  170  A    between atoms: _401  and  _402
REMARK  171  A    between atoms: _404  and  _406
REMARK  172  A    between atoms: _406  and  _407
REMARK  173  A    between atoms: _406  and  _409
REMARK  174  A    between atoms: _409  and  _410
REMARK  175  A    between atoms: _413  and  _415
REMARK  176  A    between atoms: _415  and  _416
REMARK  177  A    between atoms: _418  and  _420
REMARK  178  A    between atoms: _420  and  _421
REMARK  179  A    between atoms: _423  and  _425
REMARK  180  A    between atoms: _425  and  _426
REMARK  181  A    between atoms: _425  and  _428
REMARK  182  A    between atoms: _428  and  _429
REMARK  183  A    between atoms: _432  and  _434
REMARK  184  A    between atoms: _434  and  _435
REMARK  185  A    between atoms: _434  and  _437
REMARK  186  A    between atoms: _440  and  _442
REMARK  187  A    between atoms: _442  and  _443
REMARK  188  A    between atoms: _442  and  _445
REMARK  189  A    between atoms: _445  and  _446
REMARK  190  A    between atoms: _449  and  _451
REMARK  191  A    between atoms: _451  and  _452
REMARK  192  A    between atoms: _451  and  _454
REMARK  193  A    between atoms: _454  and  _455
REMARK  194  A    between atoms: _459  and  _460
REMARK  195  A    between atoms: _465  and  _467
REMARK  196  A    between atoms: _467  and  _468
REMARK  197  A    between atoms: _467  and  _470
REMARK  198  A    between atoms: _473  and  _475
REMARK  199  A    between atoms: _475  and  _476
REMARK  200  A    between atoms: _475  and  _478
REMARK  201  A    between atoms: _478  and  _479
REMARK  202  A    between atoms: _484  and  _486
REMARK  203  A    between atoms: _486  and  _487
REMARK  204  A    between atoms: _486  and  _489
REMARK  205  A    between atoms: _489  and  _490
REMARK  206  A    between atoms: _493  and  _495
REMARK  207  A    between atoms: _495  and  _496
REMARK  208  A    between atoms: _495  and  _498
REMARK  209  A    between atoms: _498  and  _499
REMARK  210  A    between atoms: _502  and  _504
REMARK  211  A    between atoms: _504  and  _505
REMARK  212  A    between atoms: _507  and  _509
REMARK  213  A    between atoms: _509  and  _510
REMARK  214  A    between atoms: _509  and  _512
REMARK  215  A    between atoms: _512  and  _513
REMARK  216  A    between atoms: _513  and  _514
REMARK  217  A    between atoms: _514  and  _515
REMARK  218  A    between atoms: _524  and  _526
REMARK  219  A    between atoms: _526  and  _527
REMARK  220  A    between atoms: _526  and  _529
REMARK  221  A    between atoms: _529  and  _530
REMARK                            x       y       z     vdW  Elec       q    Type
REMARK                         _______ _______ _______ _____ _____    ______ ____
ROOT
ATOM      1  O   HOH     1       1.236 -15.490  -5.456  0.00  0.00    +0.000 OA
ENDROOT
TORSDOF 0
REMARK  Name = ../refined-set-2016/4hla/4hla_pocket.pdb
REMARK  221 active torsions:
REMARK  status: ('A' for Active; 'I' for Inactive)
REMARK    1  A    between atoms: _1  and  _3
REMARK    2  A    between atoms: _3  and  _4
REMARK    3  A    between atoms: _3  and  _6
REMARK    4  A    between atoms: _6  and  _7
REMARK    5  A    between atoms: _7  and  _8
REMARK    6  A    between atoms: _8  and  _9
REMARK    7  A    between atoms: _18  and  _20
REMARK    8  A    between atoms: _20  and  _21
REMARK    9  A    between atoms: _20  and  _23
REMARK   10  A    between atoms: _23  and  _24
REMARK   11  A    between atoms: _27  and  _29
REMARK   12  A    between atoms: _29  and  _30
REMARK   13  A    between atoms: _29  and  _32
REMARK   14  A    between atoms: _32  and  _33
REMARK   15  A    between atoms: _36  and  _38
REMARK   16  A    between atoms: _38  and  _39
REMARK   17  A    between atoms: _38  and  _41
REMARK   18  A    between atoms: _41  and  _42
REMARK   19  A    between atoms: _45  and  _47
REMARK   20  A    between atoms: _47  and  _48
REMARK   21  A    between atoms: _47  and  _50
REMARK   22  A    between atoms: _50  and  _51
REMARK   23  A    between atoms: _54  and  _56
REMARK   24  A    between atoms: _56  and  _57
REMARK   25  A    between atoms: _59  and  _61
REMARK   26  A    between atoms: _61  and  _62
REMARK   27  A    between atoms: _65  and  _67
REMARK   28  A    between atoms: _67  and  _68
REMARK   29  A    between atoms: _67  and  _70
REMARK   30  A    between atoms: _70  and  _71
REMARK   31  A    between atoms: _74  and  _76
REMARK   32  A    between atoms: _76  and  _77
REMARK   33  A    between atoms: _76  and  _79
REMARK   34  A    between atoms: _79  and  _80
REMARK   35  A    between atoms: _83  and  _85
REMARK   36  A    between atoms: _85  and  _86
REMARK   37  A    between atoms: _85  and  _88
REMARK   38  A    between atoms: _88  and  _89
REMARK   39  A    between atoms: _92  and  _94
REMARK   40  A    between atoms: _94  and  _95
REMARK   41  A    between atoms: _94  and  _97
REMARK   42  A    between atoms: _100  and  _102
REMARK   43  A    between atoms: _102  and  _103
REMARK   44  A    between atoms: _102  and  _105
REMARK   45  A    between atoms: _105  and  _106
REMARK   46  A    between atoms: _106  and  _107
REMARK   47  A    between atoms: _107  and  _108
REMARK   48  A    between atoms: _108  and  _109
REMARK   49  A    between atoms: _113  and  _115
REMARK   50  A    between atoms: _115  and  _116
REMARK   51  A    between atoms: _115  and  _118
REMARK   52  A    between atoms: _118  and  _119
REMARK   53  A    between atoms: _119  and  _120
REMARK   54  A    between atoms: _122  and  _124
REMARK   55  A    between atoms: _124  and  _125
REMARK   56  A    between atoms: _124  and  _127
REMARK   57  A    between atoms: _127  and  _128
REMARK   58  A    between atoms: _131  and  _133
REMARK   59  A    between atoms: _133  and  _134
REMARK   60  A    between atoms: _136  and  _138
REMARK   61  A    between atoms: _138  and  _139
REMARK   62  A    between atoms: _141  and  _143
REMARK   63  A    between atoms: _143  and  _144
REMARK   64  A    between atoms: _143  and  _146
REMARK   65  A    between atoms: _146  and  _147
REMARK   66  A    between atoms: _150  and  _152
REMARK   67  A    between atoms: _152  and  _153
REMARK   68  A    between atoms: _155  and  _157
REMARK   69  A    between atoms: _157  and  _158
REMARK   70  A    between atoms: _160  and  _162
REMARK   71  A    between atoms: _162  and  _163
REMARK   72  A    between atoms: _162  and  _165
REMARK   73  A    between atoms: _165  and  _166
REMARK   74  A    between atoms: _169  and  _171
REMARK   75  A    between atoms: _171  and  _172
REMARK   76  A    between atoms: _171  and  _174
REMARK   77  A    between atoms: _174  and  _175
REMARK   78  A    between atoms: _178  and  _180
REMARK   79  A    between atoms: _180  and  _181
REMARK   80  A    between atoms: _180  and  _183
REMARK   81  A    between atoms: _183  and  _184
REMARK   82  A    between atoms: _188  and  _189
REMARK   83  A    between atoms: _194  and  _196
REMARK   84  A    between atoms: _196  and  _197
REMARK   85  A    between atoms: _196  and  _199
REMARK   86  A    between atoms: _202  and  _204
REMARK   87  A    between atoms: _204  and  _205
REMARK   88  A    between atoms: _204  and  _207
REMARK   89  A    between atoms: _207  and  _208
REMARK   90  A    between atoms: _213  and  _215
REMARK   91  A    between atoms: _215  and  _216
REMARK   92  A    between atoms: _215  and  _218
REMARK   93  A    between atoms: _218  and  _219
REMARK   94  A    between atoms: _222  and  _224
REMARK   95  A    between atoms: _224  and  _225
REMARK   96  A    between atoms: _224  and  _227
REMARK   97  A    between atoms: _227  and  _228
REMARK   98  A    between atoms: _231  and  _233
REMARK   99  A    between atoms: _233  and  _234
REMARK  100  A    between atoms: _236  and  _238
REMARK  101  A    between atoms: _238  and  _239
REMARK  102  A    between atoms: _238  and  _241
REMARK  103  A    between atoms: _241  and  _242
REMARK  104  A    between atoms: _242  and  _243
REMARK  105  A    between atoms: _243  and  _244
REMARK  106  A    between atoms: _253  and  _255
REMARK  107  A    between atoms: _255  and  _256
REMARK  108  A    between atoms: _255  and  _258
REMARK  109  A    between atoms: _258  and  _259
REMARK  110  A    between atoms: _264  and  _266
REMARK  111  A    between atoms: _266  and  _267
REMARK  112  A    between atoms: _266  and  _269
REMARK  113  A    between atoms: _269  and  _270
REMARK  114  A    between atoms: _270  and  _271
REMARK  115  A    between atoms: _271  and  _272
REMARK  116  A    between atoms: _281  and  _283
REMARK  117  A    between atoms: _283  and  _284
REMARK  118  A    between atoms: _283  and  _286
REMARK  119  A    between atoms: _286  and  _287
REMARK  120  A    between atoms: _290  and  _292
REMARK  121  A    between atoms: _292  and  _293
REMARK  122  A    between atoms: _292  and  _295
REMARK  123  A    between atoms: _295  and  _296
REMARK  124  A    between atoms: _299  and  _301
REMARK  125  A    between atoms: _301  and  _302
REMARK  126  A    between atoms: _301  and  _304
REMARK  127  A    between atoms: _304  and  _305
REMARK  128  A    between atoms: _308  and  _310
REMARK  129  A    between atoms: _310  and  _311
REMARK  130  A    between atoms: _310  and  _313
REMARK  131  A    between atoms: _313  and  _314
REMARK  132  A    between atoms: _317  and  _319
REMARK  133  A    between atoms: _319  and  _320
REMARK  134  A    between atoms: _322  and  _324
REMARK  135  A    between atoms: _324  and  _325
REMARK  136  A    between atoms: _328  and  _330
REMARK  137  A    between atoms: _330  and  _331
REMARK  138  A    between atoms: _330  and  _333
REMARK  139  A    between atoms: _333  and  _334
REMARK  140  A    between atoms: _337  and  _339
REMARK  141  A    between atoms: _339  and  _340
REMARK  142  A    between atoms: _339  and  _342
REMARK  143  A    between atoms: _342  and  _343
REMARK  144  A    between atoms: _346  and  _348
REMARK  145  A    between atoms: _348  and  _349
REMARK  146  A    between atoms: _348  and  _351
REMARK  147  A    between atoms: _351  and  _352
REMARK  148  A    between atoms: _355  and  _357
REMARK  149  A    between atoms: _357  and  _358
REMARK  150  A    between atoms: _357  and  _360
REMARK  151  A    between atoms: _363  and  _365
REMARK  152  A    between atoms: _365  and  _366
REMARK  153  A    between atoms: _365  and  _368
REMARK  154  A    between atoms: _368  and  _369
REMARK  155  A    between atoms: _369  and  _370
REMARK  156  A    between atoms: _370  and  _371
REMARK  157  A    between atoms: _371  and  _372
REMARK  158  A    between atoms: _376  and  _378
REMARK  159  A    between atoms: _378  and  _379
REMARK  160  A    between atoms: _378  and  _381
REMARK  161  A    between atoms: _381  and  _382
REMARK  162  A    between atoms: _382  and  _383
REMARK  163  A    between atoms: _385  and  _387
REMARK  164  A    between atoms: _387  and  _388
REMARK  165  A    between atoms: _387  and  _390
REMARK  166  A    between atoms: _390  and  _391
REMARK  167  A    between atoms: _394  and  _396
REMARK  168  A    between atoms: _396  and  _397
REMARK  169  A    between atoms: _399  and  _401
REMARK  170  A    between atoms: _401  and  _402
REMARK  171  A    between atoms: _404  and  _406
REMARK  172  A    between atoms: _406  and  _407
REMARK  173  A    between atoms: _406  and  _409
REMARK  174  A    between atoms: _409  and  _410
REMARK  175  A    between atoms: _413  and  _415
REMARK  176  A    between atoms: _415  and  _416
REMARK  177  A    between atoms: _418  and  _420
REMARK  178  A    between atoms: _420  and  _421
REMARK  179  A    between atoms: _423  and  _425
REMARK  180  A    between atoms: _425  and  _426
REMARK  181  A    between atoms: _425  and  _428
REMARK  182  A    between atoms: _428  and  _429
REMARK  183  A    between atoms: _432  and  _434
REMARK  184  A    between atoms: _434  and  _435
REMARK  185  A    between atoms: _434  and  _437
REMARK  186  A    between atoms: _440  and  _442
REMARK  187  A    between atoms: _442  and  _443
REMARK  188  A    between atoms: _442  and  _445
REMARK  189  A    between atoms: _445  and  _446
REMARK  190  A    between atoms: _449  and  _451
REMARK  191  A    between atoms: _451  and  _452
REMARK  192  A    between atoms: _451  and  _454
REMARK  193  A    between atoms: _454  and  _455
REMARK  194  A    between atoms: _459  and  _460
REMARK  195  A    between atoms: _465  and  _467
REMARK  196  A    between atoms: _467  and  _468
REMARK  197  A    between atoms: _467  and  _470
REMARK  198  A    between atoms: _473  and  _475
REMARK  199  A    between atoms: _475  and  _476
REMARK  200  A    between atoms: _475  and  _478
REMARK  201  A    between atoms: _478  and  _479
REMARK  202  A    between atoms: _484  and  _486
REMARK  203  A    between atoms: _486  and  _487
REMARK  204  A    between atoms: _486  and  _489
REMARK  205  A    between atoms: _489  and  _490
REMARK  206  A    between atoms: _493  and  _495
REMARK  207  A    between atoms: _495  and  _496
REMARK  208  A    between atoms: _495  and  _498
REMARK  209  A    between atoms: _498  and  _499
REMARK  210  A    between atoms: _502  and  _504
REMARK  211  A    between atoms: _504  and  _505
REMARK  212  A    between atoms: _507  and  _509
REMARK  213  A    between atoms: _509  and  _510
REMARK  214  A    between atoms: _509  and  _512
REMARK  215  A    between atoms: _512  and  _513
REMARK  216  A    between atoms: _513  and  _514
REMARK  217  A    between atoms: _514  and  _515
REMARK  218  A    between atoms: _524  and  _526
REMARK  219  A    between atoms: _526  and  _527
REMARK  220  A    between atoms: _526  and  _529
REMARK  221  A    between atoms: _529  and  _530
REMARK                            x       y       z     vdW  Elec       q    Type
REMARK                         _______ _______ _______ _____ _____    ______ ____
ROOT
ATOM      1  O   HOH     1      16.605  -9.398   5.385  0.00  0.00    +0.000 OA
ENDROOT
TORSDOF 0
REMARK  Name = ../refined-set-2016/4hla/4hla_pocket.pdb
REMARK  221 active torsions:
REMARK  status: ('A' for Active; 'I' for Inactive)
REMARK    1  A    between atoms: _1  and  _3
REMARK    2  A    between atoms: _3  and  _4
REMARK    3  A    between atoms: _3  and  _6
REMARK    4  A    between atoms: _6  and  _7
REMARK    5  A    between atoms: _7  and  _8
REMARK    6  A    between atoms: _8  and  _9
REMARK    7  A    between atoms: _18  and  _20
REMARK    8  A    between atoms: _20  and  _21
REMARK    9  A    between atoms: _20  and  _23
REMARK   10  A    between atoms: _23  and  _24
REMARK   11  A    between atoms: _27  and  _29
REMARK   12  A    between atoms: _29  and  _30
REMARK   13  A    between atoms: _29  and  _32
REMARK   14  A    between atoms: _32  and  _33
REMARK   15  A    between atoms: _36  and  _38
REMARK   16  A    between atoms: _38  and  _39
REMARK   17  A    between atoms: _38  and  _41
REMARK   18  A    between atoms: _41  and  _42
REMARK   19  A    between atoms: _45  and  _47
REMARK   20  A    between atoms: _47  and  _48
REMARK   21  A    between atoms: _47  and  _50
REMARK   22  A    between atoms: _50  and  _51
REMARK   23  A    between atoms: _54  and  _56
REMARK   24  A    between atoms: _56  and  _57
REMARK   25  A    between atoms: _59  and  _61
REMARK   26  A    between atoms: _61  and  _62
REMARK   27  A    between atoms: _65  and  _67
REMARK   28  A    between atoms: _67  and  _68
REMARK   29  A    between atoms: _67  and  _70
REMARK   30  A    between atoms: _70  and  _71
REMARK   31  A    between atoms: _74  and  _76
REMARK   32  A    between atoms: _76  and  _77
REMARK   33  A    between atoms: _76  and  _79
REMARK   34  A    between atoms: _79  and  _80
REMARK   35  A    between atoms: _83  and  _85
REMARK   36  A    between atoms: _85  and  _86
REMARK   37  A    between atoms: _85  and  _88
REMARK   38  A    between atoms: _88  and  _89
REMARK   39  A    between atoms: _92  and  _94
REMARK   40  A    between atoms: _94  and  _95
REMARK   41  A    between atoms: _94  and  _97
REMARK   42  A    between atoms: _100  and  _102
REMARK   43  A    between atoms: _102  and  _103
REMARK   44  A    between atoms: _102  and  _105
REMARK   45  A    between atoms: _105  and  _106
REMARK   46  A    between atoms: _106  and  _107
REMARK   47  A    between atoms: _107  and  _108
REMARK   48  A    between atoms: _108  and  _109
REMARK   49  A    between atoms: _113  and  _115
REMARK   50  A    between atoms: _115  and  _116
REMARK   51  A    between atoms: _115  and  _118
REMARK   52  A    between atoms: _118  and  _119
REMARK   53  A    between atoms: _119  and  _120
REMARK   54  A    between atoms: _122  and  _124
REMARK   55  A    between atoms: _124  and  _125
REMARK   56  A    between atoms: _124  and  _127
REMARK   57  A    between atoms: _127  and  _128
REMARK   58  A    between atoms: _131  and  _133
REMARK   59  A    between atoms: _133  and  _134
REMARK   60  A    between atoms: _136  and  _138
REMARK   61  A    between atoms: _138  and  _139
REMARK   62  A    between atoms: _141  and  _143
REMARK   63  A    between atoms: _143  and  _144
REMARK   64  A    between atoms: _143  and  _146
REMARK   65  A    between atoms: _146  and  _147
REMARK   66  A    between atoms: _150  and  _152
REMARK   67  A    between atoms: _152  and  _153
REMARK   68  A    between atoms: _155  and  _157
REMARK   69  A    between atoms: _157  and  _158
REMARK   70  A    between atoms: _160  and  _162
REMARK   71  A    between atoms: _162  and  _163
REMARK   72  A    between atoms: _162  and  _165
REMARK   73  A    between atoms: _165  and  _166
REMARK   74  A    between atoms: _169  and  _171
REMARK   75  A    between atoms: _171  and  _172
REMARK   76  A    between atoms: _171  and  _174
REMARK   77  A    between atoms: _174  and  _175
REMARK   78  A    between atoms: _178  and  _180
REMARK   79  A    between atoms: _180  and  _181
REMARK   80  A    between atoms: _180  and  _183
REMARK   81  A    between atoms: _183  and  _184
REMARK   82  A    between atoms: _188  and  _189
REMARK   83  A    between atoms: _194  and  _196
REMARK   84  A    between atoms: _196  and  _197
REMARK   85  A    between atoms: _196  and  _199
REMARK   86  A    between atoms: _202  and  _204
REMARK   87  A    between atoms: _204  and  _205
REMARK   88  A    between atoms: _204  and  _207
REMARK   89  A    between atoms: _207  and  _208
REMARK   90  A    between atoms: _213  and  _215
REMARK   91  A    between atoms: _215  and  _216
REMARK   92  A    between atoms: _215  and  _218
REMARK   93  A    between atoms: _218  and  _219
REMARK   94  A    between atoms: _222  and  _224
REMARK   95  A    between atoms: _224  and  _225
REMARK   96  A    between atoms: _224  and  _227
REMARK   97  A    between atoms: _227  and  _228
REMARK   98  A    between atoms: _231  and  _233
REMARK   99  A    between atoms: _233  and  _234
REMARK  100  A    between atoms: _236  and  _238
REMARK  101  A    between atoms: _238  and  _239
REMARK  102  A    between atoms: _238  and  _241
REMARK  103  A    between atoms: _241  and  _242
REMARK  104  A    between atoms: _242  and  _243
REMARK  105  A    between atoms: _243  and  _244
REMARK  106  A    between atoms: _253  and  _255
REMARK  107  A    between atoms: _255  and  _256
REMARK  108  A    between atoms: _255  and  _258
REMARK  109  A    between atoms: _258  and  _259
REMARK  110  A    between atoms: _264  and  _266
REMARK  111  A    between atoms: _266  and  _267
REMARK  112  A    between atoms: _266  and  _269
REMARK  113  A    between atoms: _269  and  _270
REMARK  114  A    between atoms: _270  and  _271
REMARK  115  A    between atoms: _271  and  _272
REMARK  116  A    between atoms: _281  and  _283
REMARK  117  A    between atoms: _283  and  _284
REMARK  118  A    between atoms: _283  and  _286
REMARK  119  A    between atoms: _286  and  _287
REMARK  120  A    between atoms: _290  and  _292
REMARK  121  A    between atoms: _292  and  _293
REMARK  122  A    between atoms: _292  and  _295
REMARK  123  A    between atoms: _295  and  _296
REMARK  124  A    between atoms: _299  and  _301
REMARK  125  A    between atoms: _301  and  _302
REMARK  126  A    between atoms: _301  and  _304
REMARK  127  A    between atoms: _304  and  _305
REMARK  128  A    between atoms: _308  and  _310
REMARK  129  A    between atoms: _310  and  _311
REMARK  130  A    between atoms: _310  and  _313
REMARK  131  A    between atoms: _313  and  _314
REMARK  132  A    between atoms: _317  and  _319
REMARK  133  A    between atoms: _319  and  _320
REMARK  134  A    between atoms: _322  and  _324
REMARK  135  A    between atoms: _324  and  _325
REMARK  136  A    between atoms: _328  and  _330
REMARK  137  A    between atoms: _330  and  _331
REMARK  138  A    between atoms: _330  and  _333
REMARK  139  A    between atoms: _333  and  _334
REMARK  140  A    between atoms: _337  and  _339
REMARK  141  A    between atoms: _339  and  _340
REMARK  142  A    between atoms: _339  and  _342
REMARK  143  A    between atoms: _342  and  _343
REMARK  144  A    between atoms: _346  and  _348
REMARK  145  A    between atoms: _348  and  _349
REMARK  146  A    between atoms: _348  and  _351
REMARK  147  A    between atoms: _351  and  _352
REMARK  148  A    between atoms: _355  and  _357
REMARK  149  A    between atoms: _357  and  _358
REMARK  150  A    between atoms: _357  and  _360
REMARK  151  A    between atoms: _363  and  _365
REMARK  152  A    between atoms: _365  and  _366
REMARK  153  A    between atoms: _365  and  _368
REMARK  154  A    between atoms: _368  and  _369
REMARK  155  A    between atoms: _369  and  _370
REMARK  156  A    between atoms: _370  and  _371
REMARK  157  A    between atoms: _371  and  _372
REMARK  158  A    between atoms: _376  and  _378
REMARK  159  A    between atoms: _378  and  _379
REMARK  160  A    between atoms: _378  and  _381
REMARK  161  A    between atoms: _381  and  _382
REMARK  162  A    between atoms: _382  and  _383
REMARK  163  A    between atoms: _385  and  _387
REMARK  164  A    between atoms: _387  and  _388
REMARK  165  A    between atoms: _387  and  _390
REMARK  166  A    between atoms: _390  and  _391
REMARK  167  A    between atoms: _394  and  _396
REMARK  168  A    between atoms: _396  and  _397
REMARK  169  A    between atoms: _399  and  _401
REMARK  170  A    between atoms: _401  and  _402
REMARK  171  A    between atoms: _404  and  _406
REMARK  172  A    between atoms: _406  and  _407
REMARK  173  A    between atoms: _406  and  _409
REMARK  174  A    between atoms: _409  and  _410
REMARK  175  A    between atoms: _413  and  _415
REMARK  176  A    between atoms: _415  and  _416
REMARK  177  A    between atoms: _418  and  _420
REMARK  178  A    between atoms: _420  and  _421
REMARK  179  A    between atoms: _423  and  _425
REMARK  180  A    between atoms: _425  and  _426
REMARK  181  A    between atoms: _425  and  _428
REMARK  182  A    between atoms: _428  and  _429
REMARK  183  A    between atoms: _432  and  _434
REMARK  184  A    between atoms: _434  and  _435
REMARK  185  A    between atoms: _434  and  _437
REMARK  186  A    between atoms: _440  and  _442
REMARK  187  A    between atoms: _442  and  _443
REMARK  188  A    between atoms: _442  and  _445
REMARK  189  A    between atoms: _445  and  _446
REMARK  190  A    between atoms: _449  and  _451
REMARK  191  A    between atoms: _451  and  _452
REMARK  192  A    between atoms: _451  and  _454
REMARK  193  A    between atoms: _454  and  _455
REMARK  194  A    between atoms: _459  and  _460
REMARK  195  A    between atoms: _465  and  _467
REMARK  196  A    between atoms: _467  and  _468
REMARK  197  A    between atoms: _467  and  _470
REMARK  198  A    between atoms: _473  and  _475
REMARK  199  A    between atoms: _475  and  _476
REMARK  200  A    between atoms: _475  and  _478
REMARK  201  A    between atoms: _478  and  _479
REMARK  202  A    between atoms: _484  and  _486
REMARK  203  A    between atoms: _486  and  _487
REMARK  204  A    between atoms: _486  and  _489
REMARK  205  A    between atoms: _489  and  _490
REMARK  206  A    between atoms: _493  and  _495
REMARK  207  A    between atoms: _495  and  _496
REMARK  208  A    between atoms: _495  and  _498
REMARK  209  A    between atoms: _498  and  _499
REMARK  210  A    between atoms: _502  and  _504
REMARK  211  A    between atoms: _504  and  _505
REMARK  212  A    between atoms: _507  and  _509
REMARK  213  A    between atoms: _509  and  _510
REMARK  214  A    between atoms: _509  and  _512
REMARK  215  A    between atoms: _512  and  _513
REMARK  216  A    between atoms: _513  and  _514
REMARK  217  A    between atoms: _514  and  _515
REMARK  218  A    between atoms: _524  and  _526
REMARK  219  A    between atoms: _526  and  _527
REMARK  220  A    between atoms: _526  and  _529
REMARK  221  A    between atoms: _529  and  _530
REMARK                            x       y       z     vdW  Elec       q    Type
REMARK                         _______ _______ _______ _____ _____    ______ ____
ROOT
ATOM      1  O   HOH     1       3.015 -15.045  -8.034  0.00  0.00    +0.000 OA
ENDROOT
TORSDOF 0
REMARK  Name = ../refined-set-2016/4hla/4hla_pocket.pdb
REMARK  221 active torsions:
REMARK  status: ('A' for Active; 'I' for Inactive)
REMARK    1  A    between atoms: _1  and  _3
REMARK    2  A    between atoms: _3  and  _4
REMARK    3  A    between atoms: _3  and  _6
REMARK    4  A    between atoms: _6  and  _7
REMARK    5  A    between atoms: _7  and  _8
REMARK    6  A    between atoms: _8  and  _9
REMARK    7  A    between atoms: _18  and  _20
REMARK    8  A    between atoms: _20  and  _21
REMARK    9  A    between atoms: _20  and  _23
REMARK   10  A    between atoms: _23  and  _24
REMARK   11  A    between atoms: _27  and  _29
REMARK   12  A    between atoms: _29  and  _30
REMARK   13  A    between atoms: _29  and  _32
REMARK   14  A    between atoms: _32  and  _33
REMARK   15  A    between atoms: _36  and  _38
REMARK   16  A    between atoms: _38  and  _39
REMARK   17  A    between atoms: _38  and  _41
REMARK   18  A    between atoms: _41  and  _42
REMARK   19  A    between atoms: _45  and  _47
REMARK   20  A    between atoms: _47  and  _48
REMARK   21  A    between atoms: _47  and  _50
REMARK   22  A    between atoms: _50  and  _51
REMARK   23  A    between atoms: _54  and  _56
REMARK   24  A    between atoms: _56  and  _57
REMARK   25  A    between atoms: _59  and  _61
REMARK   26  A    between atoms: _61  and  _62
REMARK   27  A    between atoms: _65  and  _67
REMARK   28  A    between atoms: _67  and  _68
REMARK   29  A    between atoms: _67  and  _70
REMARK   30  A    between atoms: _70  and  _71
REMARK   31  A    between atoms: _74  and  _76
REMARK   32  A    between atoms: _76  and  _77
REMARK   33  A    between atoms: _76  and  _79
REMARK   34  A    between atoms: _79  and  _80
REMARK   35  A    between atoms: _83  and  _85
REMARK   36  A    between atoms: _85  and  _86
REMARK   37  A    between atoms: _85  and  _88
REMARK   38  A    between atoms: _88  and  _89
REMARK   39  A    between atoms: _92  and  _94
REMARK   40  A    between atoms: _94  and  _95
REMARK   41  A    between atoms: _94  and  _97
REMARK   42  A    between atoms: _100  and  _102
REMARK   43  A    between atoms: _102  and  _103
REMARK   44  A    between atoms: _102  and  _105
REMARK   45  A    between atoms: _105  and  _106
REMARK   46  A    between atoms: _106  and  _107
REMARK   47  A    between atoms: _107  and  _108
REMARK   48  A    between atoms: _108  and  _109
REMARK   49  A    between atoms: _113  and  _115
REMARK   50  A    between atoms: _115  and  _116
REMARK   51  A    between atoms: _115  and  _118
REMARK   52  A    between atoms: _118  and  _119
REMARK   53  A    between atoms: _119  and  _120
REMARK   54  A    between atoms: _122  and  _124
REMARK   55  A    between atoms: _124  and  _125
REMARK   56  A    between atoms: _124  and  _127
REMARK   57  A    between atoms: _127  and  _128
REMARK   58  A    between atoms: _131  and  _133
REMARK   59  A    between atoms: _133  and  _134
REMARK   60  A    between atoms: _136  and  _138
REMARK   61  A    between atoms: _138  and  _139
REMARK   62  A    between atoms: _141  and  _143
REMARK   63  A    between atoms: _143  and  _144
REMARK   64  A    between atoms: _143  and  _146
REMARK   65  A    between atoms: _146  and  _147
REMARK   66  A    between atoms: _150  and  _152
REMARK   67  A    between atoms: _152  and  _153
REMARK   68  A    between atoms: _155  and  _157
REMARK   69  A    between atoms: _157  and  _158
REMARK   70  A    between atoms: _160  and  _162
REMARK   71  A    between atoms: _162  and  _163
REMARK   72  A    between atoms: _162  and  _165
REMARK   73  A    between atoms: _165  and  _166
REMARK   74  A    between atoms: _169  and  _171
REMARK   75  A    between atoms: _171  and  _172
REMARK   76  A    between atoms: _171  and  _174
REMARK   77  A    between atoms: _174  and  _175
REMARK   78  A    between atoms: _178  and  _180
REMARK   79  A    between atoms: _180  and  _181
REMARK   80  A    between atoms: _180  and  _183
REMARK   81  A    between atoms: _183  and  _184
REMARK   82  A    between atoms: _188  and  _189
REMARK   83  A    between atoms: _194  and  _196
REMARK   84  A    between atoms: _196  and  _197
REMARK   85  A    between atoms: _196  and  _199
REMARK   86  A    between atoms: _202  and  _204
REMARK   87  A    between atoms: _204  and  _205
REMARK   88  A    between atoms: _204  and  _207
REMARK   89  A    between atoms: _207  and  _208
REMARK   90  A    between atoms: _213  and  _215
REMARK   91  A    between atoms: _215  and  _216
REMARK   92  A    between atoms: _215  and  _218
REMARK   93  A    between atoms: _218  and  _219
REMARK   94  A    between atoms: _222  and  _224
REMARK   95  A    between atoms: _224  and  _225
REMARK   96  A    between atoms: _224  and  _227
REMARK   97  A    between atoms: _227  and  _228
REMARK   98  A    between atoms: _231  and  _233
REMARK   99  A    between atoms: _233  and  _234
REMARK  100  A    between atoms: _236  and  _238
REMARK  101  A    between atoms: _238  and  _239
REMARK  102  A    between atoms: _238  and  _241
REMARK  103  A    between atoms: _241  and  _242
REMARK  104  A    between atoms: _242  and  _243
REMARK  105  A    between atoms: _243  and  _244
REMARK  106  A    between atoms: _253  and  _255
REMARK  107  A    between atoms: _255  and  _256
REMARK  108  A    between atoms: _255  and  _258
REMARK  109  A    between atoms: _258  and  _259
REMARK  110  A    between atoms: _264  and  _266
REMARK  111  A    between atoms: _266  and  _267
REMARK  112  A    between atoms: _266  and  _269
REMARK  113  A    between atoms: _269  and  _270
REMARK  114  A    between atoms: _270  and  _271
REMARK  115  A    between atoms: _271  and  _272
REMARK  116  A    between atoms: _281  and  _283
REMARK  117  A    between atoms: _283  and  _284
REMARK  118  A    between atoms: _283  and  _286
REMARK  119  A    between atoms: _286  and  _287
REMARK  120  A    between atoms: _290  and  _292
REMARK  121  A    between atoms: _292  and  _293
REMARK  122  A    between atoms: _292  and  _295
REMARK  123  A    between atoms: _295  and  _296
REMARK  124  A    between atoms: _299  and  _301
REMARK  125  A    between atoms: _301  and  _302
REMARK  126  A    between atoms: _301  and  _304
REMARK  127  A    between atoms: _304  and  _305
REMARK  128  A    between atoms: _308  and  _310
REMARK  129  A    between atoms: _310  and  _311
REMARK  130  A    between atoms: _310  and  _313
REMARK  131  A    between atoms: _313  and  _314
REMARK  132  A    between atoms: _317  and  _319
REMARK  133  A    between atoms: _319  and  _320
REMARK  134  A    between atoms: _322  and  _324
REMARK  135  A    between atoms: _324  and  _325
REMARK  136  A    between atoms: _328  and  _330
REMARK  137  A    between atoms: _330  and  _331
REMARK  138  A    between atoms: _330  and  _333
REMARK  139  A    between atoms: _333  and  _334
REMARK  140  A    between atoms: _337  and  _339
REMARK  141  A    between atoms: _339  and  _340
REMARK  142  A    between atoms: _339  and  _342
REMARK  143  A    between atoms: _342  and  _343
REMARK  144  A    between atoms: _346  and  _348
REMARK  145  A    between atoms: _348  and  _349
REMARK  146  A    between atoms: _348  and  _351
REMARK  147  A    between atoms: _351  and  _352
REMARK  148  A    between atoms: _355  and  _357
REMARK  149  A    between atoms: _357  and  _358
REMARK  150  A    between atoms: _357  and  _360
REMARK  151  A    between atoms: _363  and  _365
REMARK  152  A    between atoms: _365  and  _366
REMARK  153  A    between atoms: _365  and  _368
REMARK  154  A    between atoms: _368  and  _369
REMARK  155  A    between atoms: _369  and  _370
REMARK  156  A    between atoms: _370  and  _371
REMARK  157  A    between atoms: _371  and  _372
REMARK  158  A    between atoms: _376  and  _378
REMARK  159  A    between atoms: _378  and  _379
REMARK  160  A    between atoms: _378  and  _381
REMARK  161  A    between atoms: _381  and  _382
REMARK  162  A    between atoms: _382  and  _383
REMARK  163  A    between atoms: _385  and  _387
REMARK  164  A    between atoms: _387  and  _388
REMARK  165  A    between atoms: _387  and  _390
REMARK  166  A    between atoms: _390  and  _391
REMARK  167  A    between atoms: _394  and  _396
REMARK  168  A    between atoms: _396  and  _397
REMARK  169  A    between atoms: _399  and  _401
REMARK  170  A    between atoms: _401  and  _402
REMARK  171  A    between atoms: _404  and  _406
REMARK  172  A    between atoms: _406  and  _407
REMARK  173  A    between atoms: _406  and  _409
REMARK  174  A    between atoms: _409  and  _410
REMARK  175  A    between atoms: _413  and  _415
REMARK  176  A    between atoms: _415  and  _416
REMARK  177  A    between atoms: _418  and  _420
REMARK  178  A    between atoms: _420  and  _421
REMARK  179  A    between atoms: _423  and  _425
REMARK  180  A    between atoms: _425  and  _426
REMARK  181  A    between atoms: _425  and  _428
REMARK  182  A    between atoms: _428  and  _429
REMARK  183  A    between atoms: _432  and  _434
REMARK  184  A    between atoms: _434  and  _435
REMARK  185  A    between atoms: _434  and  _437
REMARK  186  A    between atoms: _440  and  _442
REMARK  187  A    between atoms: _442  and  _443
REMARK  188  A    between atoms: _442  and  _445
REMARK  189  A    between atoms: _445  and  _446
REMARK  190  A    between atoms: _449  and  _451
REMARK  191  A    between atoms: _451  and  _452
REMARK  192  A    between atoms: _451  and  _454
REMARK  193  A    between atoms: _454  and  _455
REMARK  194  A    between atoms: _459  and  _460
REMARK  195  A    between atoms: _465  and  _467
REMARK  196  A    between atoms: _467  and  _468
REMARK  197  A    between atoms: _467  and  _470
REMARK  198  A    between atoms: _473  and  _475
REMARK  199  A    between atoms: _475  and  _476
REMARK  200  A    between atoms: _475  and  _478
REMARK  201  A    between atoms: _478  and  _479
REMARK  202  A    between atoms: _484  and  _486
REMARK  203  A    between atoms: _486  and  _487
REMARK  204  A    between atoms: _486  and  _489
REMARK  205  A    between atoms: _489  and  _490
REMARK  206  A    between atoms: _493  and  _495
REMARK  207  A    between atoms: _495  and  _496
REMARK  208  A    between atoms: _495  and  _498
REMARK  209  A    between atoms: _498  and  _499
REMARK  210  A    between atoms: _502  and  _504
REMARK  211  A    between atoms: _504  and  _505
REMARK  212  A    between atoms: _507  and  _509
REMARK  213  A    between atoms: _509  and  _510
REMARK  214  A    between atoms: _509  and  _512
REMARK  215  A    between atoms: _512  and  _513
REMARK  216  A    between atoms: _513  and  _514
REMARK  217  A    between atoms: _514  and  _515
REMARK  218  A    between atoms: _524  and  _526
REMARK  219  A    between atoms: _526  and  _527
REMARK  220  A    between atoms: _526  and  _529
REMARK  221  A    between atoms: _529  and  _530
REMARK                            x       y       z     vdW  Elec       q    Type
REMARK                         _______ _______ _______ _____ _____    ______ ____
ROOT
ATOM      1  O   HOH     1       0.218 -11.264   2.516  0.00  0.00    +0.000 OA
ENDROOT
TORSDOF 0
REMARK  Name = ../refined-set-2016/4hla/4hla_pocket.pdb
REMARK  221 active torsions:
REMARK  status: ('A' for Active; 'I' for Inactive)
REMARK    1  A    between atoms: _1  and  _3
REMARK    2  A    between atoms: _3  and  _4
REMARK    3  A    between atoms: _3  and  _6
REMARK    4  A    between atoms: _6  and  _7
REMARK    5  A    between atoms: _7  and  _8
REMARK    6  A    between atoms: _8  and  _9
REMARK    7  A    between atoms: _18  and  _20
REMARK    8  A    between atoms: _20  and  _21
REMARK    9  A    between atoms: _20  and  _23
REMARK   10  A    between atoms: _23  and  _24
REMARK   11  A    between atoms: _27  and  _29
REMARK   12  A    between atoms: _29  and  _30
REMARK   13  A    between atoms: _29  and  _32
REMARK   14  A    between atoms: _32  and  _33
REMARK   15  A    between atoms: _36  and  _38
REMARK   16  A    between atoms: _38  and  _39
REMARK   17  A    between atoms: _38  and  _41
REMARK   18  A    between atoms: _41  and  _42
REMARK   19  A    between atoms: _45  and  _47
REMARK   20  A    between atoms: _47  and  _48
REMARK   21  A    between atoms: _47  and  _50
REMARK   22  A    between atoms: _50  and  _51
REMARK   23  A    between atoms: _54  and  _56
REMARK   24  A    between atoms: _56  and  _57
REMARK   25  A    between atoms: _59  and  _61
REMARK   26  A    between atoms: _61  and  _62
REMARK   27  A    between atoms: _65  and  _67
REMARK   28  A    between atoms: _67  and  _68
REMARK   29  A    between atoms: _67  and  _70
REMARK   30  A    between atoms: _70  and  _71
REMARK   31  A    between atoms: _74  and  _76
REMARK   32  A    between atoms: _76  and  _77
REMARK   33  A    between atoms: _76  and  _79
REMARK   34  A    between atoms: _79  and  _80
REMARK   35  A    between atoms: _83  and  _85
REMARK   36  A    between atoms: _85  and  _86
REMARK   37  A    between atoms: _85  and  _88
REMARK   38  A    between atoms: _88  and  _89
REMARK   39  A    between atoms: _92  and  _94
REMARK   40  A    between atoms: _94  and  _95
REMARK   41  A    between atoms: _94  and  _97
REMARK   42  A    between atoms: _100  and  _102
REMARK   43  A    between atoms: _102  and  _103
REMARK   44  A    between atoms: _102  and  _105
REMARK   45  A    between atoms: _105  and  _106
REMARK   46  A    between atoms: _106  and  _107
REMARK   47  A    between atoms: _107  and  _108
REMARK   48  A    between atoms: _108  and  _109
REMARK   49  A    between atoms: _113  and  _115
REMARK   50  A    between atoms: _115  and  _116
REMARK   51  A    between atoms: _115  and  _118
REMARK   52  A    between atoms: _118  and  _119
REMARK   53  A    between atoms: _119  and  _120
REMARK   54  A    between atoms: _122  and  _124
REMARK   55  A    between atoms: _124  and  _125
REMARK   56  A    between atoms: _124  and  _127
REMARK   57  A    between atoms: _127  and  _128
REMARK   58  A    between atoms: _131  and  _133
REMARK   59  A    between atoms: _133  and  _134
REMARK   60  A    between atoms: _136  and  _138
REMARK   61  A    between atoms: _138  and  _139
REMARK   62  A    between atoms: _141  and  _143
REMARK   63  A    between atoms: _143  and  _144
REMARK   64  A    between atoms: _143  and  _146
REMARK   65  A    between atoms: _146  and  _147
REMARK   66  A    between atoms: _150  and  _152
REMARK   67  A    between atoms: _152  and  _153
REMARK   68  A    between atoms: _155  and  _157
REMARK   69  A    between atoms: _157  and  _158
REMARK   70  A    between atoms: _160  and  _162
REMARK   71  A    between atoms: _162  and  _163
REMARK   72  A    between atoms: _162  and  _165
REMARK   73  A    between atoms: _165  and  _166
REMARK   74  A    between atoms: _169  and  _171
REMARK   75  A    between atoms: _171  and  _172
REMARK   76  A    between atoms: _171  and  _174
REMARK   77  A    between atoms: _174  and  _175
REMARK   78  A    between atoms: _178  and  _180
REMARK   79  A    between atoms: _180  and  _181
REMARK   80  A    between atoms: _180  and  _183
REMARK   81  A    between atoms: _183  and  _184
REMARK   82  A    between atoms: _188  and  _189
REMARK   83  A    between atoms: _194  and  _196
REMARK   84  A    between atoms: _196  and  _197
REMARK   85  A    between atoms: _196  and  _199
REMARK   86  A    between atoms: _202  and  _204
REMARK   87  A    between atoms: _204  and  _205
REMARK   88  A    between atoms: _204  and  _207
REMARK   89  A    between atoms: _207  and  _208
REMARK   90  A    between atoms: _213  and  _215
REMARK   91  A    between atoms: _215  and  _216
REMARK   92  A    between atoms: _215  and  _218
REMARK   93  A    between atoms: _218  and  _219
REMARK   94  A    between atoms: _222  and  _224
REMARK   95  A    between atoms: _224  and  _225
REMARK   96  A    between atoms: _224  and  _227
REMARK   97  A    between atoms: _227  and  _228
REMARK   98  A    between atoms: _231  and  _233
REMARK   99  A    between atoms: _233  and  _234
REMARK  100  A    between atoms: _236  and  _238
REMARK  101  A    between atoms: _238  and  _239
REMARK  102  A    between atoms: _238  and  _241
REMARK  103  A    between atoms: _241  and  _242
REMARK  104  A    between atoms: _242  and  _243
REMARK  105  A    between atoms: _243  and  _244
REMARK  106  A    between atoms: _253  and  _255
REMARK  107  A    between atoms: _255  and  _256
REMARK  108  A    between atoms: _255  and  _258
REMARK  109  A    between atoms: _258  and  _259
REMARK  110  A    between atoms: _264  and  _266
REMARK  111  A    between atoms: _266  and  _267
REMARK  112  A    between atoms: _266  and  _269
REMARK  113  A    between atoms: _269  and  _270
REMARK  114  A    between atoms: _270  and  _271
REMARK  115  A    between atoms: _271  and  _272
REMARK  116  A    between atoms: _281  and  _283
REMARK  117  A    between atoms: _283  and  _284
REMARK  118  A    between atoms: _283  and  _286
REMARK  119  A    between atoms: _286  and  _287
REMARK  120  A    between atoms: _290  and  _292
REMARK  121  A    between atoms: _292  and  _293
REMARK  122  A    between atoms: _292  and  _295
REMARK  123  A    between atoms: _295  and  _296
REMARK  124  A    between atoms: _299  and  _301
REMARK  125  A    between atoms: _301  and  _302
REMARK  126  A    between atoms: _301  and  _304
REMARK  127  A    between atoms: _304  and  _305
REMARK  128  A    between atoms: _308  and  _310
REMARK  129  A    between atoms: _310  and  _311
REMARK  130  A    between atoms: _310  and  _313
REMARK  131  A    between atoms: _313  and  _314
REMARK  132  A    between atoms: _317  and  _319
REMARK  133  A    between atoms: _319  and  _320
REMARK  134  A    between atoms: _322  and  _324
REMARK  135  A    between atoms: _324  and  _325
REMARK  136  A    between atoms: _328  and  _330
REMARK  137  A    between atoms: _330  and  _331
REMARK  138  A    between atoms: _330  and  _333
REMARK  139  A    between atoms: _333  and  _334
REMARK  140  A    between atoms: _337  and  _339
REMARK  141  A    between atoms: _339  and  _340
REMARK  142  A    between atoms: _339  and  _342
REMARK  143  A    between atoms: _342  and  _343
REMARK  144  A    between atoms: _346  and  _348
REMARK  145  A    between atoms: _348  and  _349
REMARK  146  A    between atoms: _348  and  _351
REMARK  147  A    between atoms: _351  and  _352
REMARK  148  A    between atoms: _355  and  _357
REMARK  149  A    between atoms: _357  and  _358
REMARK  150  A    between atoms: _357  and  _360
REMARK  151  A    between atoms: _363  and  _365
REMARK  152  A    between atoms: _365  and  _366
REMARK  153  A    between atoms: _365  and  _368
REMARK  154  A    between atoms: _368  and  _369
REMARK  155  A    between atoms: _369  and  _370
REMARK  156  A    between atoms: _370  and  _371
REMARK  157  A    between atoms: _371  and  _372
REMARK  158  A    between atoms: _376  and  _378
REMARK  159  A    between atoms: _378  and  _379
REMARK  160  A    between atoms: _378  and  _381
REMARK  161  A    between atoms: _381  and  _382
REMARK  162  A    between atoms: _382  and  _383
REMARK  163  A    between atoms: _385  and  _387
REMARK  164  A    between atoms: _387  and  _388
REMARK  165  A    between atoms: _387  and  _390
REMARK  166  A    between atoms: _390  and  _391
REMARK  167  A    between atoms: _394  and  _396
REMARK  168  A    between atoms: _396  and  _397
REMARK  169  A    between atoms: _399  and  _401
REMARK  170  A    between atoms: _401  and  _402
REMARK  171  A    between atoms: _404  and  _406
REMARK  172  A    between atoms: _406  and  _407
REMARK  173  A    between atoms: _406  and  _409
REMARK  174  A    between atoms: _409  and  _410
REMARK  175  A    between atoms: _413  and  _415
REMARK  176  A    between atoms: _415  and  _416
REMARK  177  A    between atoms: _418  and  _420
REMARK  178  A    between atoms: _420  and  _421
REMARK  179  A    between atoms: _423  and  _425
REMARK  180  A    between atoms: _425  and  _426
REMARK  181  A    between atoms: _425  and  _428
REMARK  182  A    between atoms: _428  and  _429
REMARK  183  A    between atoms: _432  and  _434
REMARK  184  A    between atoms: _434  and  _435
REMARK  185  A    between atoms: _434  and  _437
REMARK  186  A    between atoms: _440  and  _442
REMARK  187  A    between atoms: _442  and  _443
REMARK  188  A    between atoms: _442  and  _445
REMARK  189  A    between atoms: _445  and  _446
REMARK  190  A    between atoms: _449  and  _451
REMARK  191  A    between atoms: _451  and  _452
REMARK  192  A    between atoms: _451  and  _454
REMARK  193  A    between atoms: _454  and  _455
REMARK  194  A    between atoms: _459  and  _460
REMARK  195  A    between atoms: _465  and  _467
REMARK  196  A    between atoms: _467  and  _468
REMARK  197  A    between atoms: _467  and  _470
REMARK  198  A    between atoms: _473  and  _475
REMARK  199  A    between atoms: _475  and  _476
REMARK  200  A    between atoms: _475  and  _478
REMARK  201  A    between atoms: _478  and  _479
REMARK  202  A    between atoms: _484  and  _486
REMARK  203  A    between atoms: _486  and  _487
REMARK  204  A    between atoms: _486  and  _489
REMARK  205  A    between atoms: _489  and  _490
REMARK  206  A    between atoms: _493  and  _495
REMARK  207  A    between atoms: _495  and  _496
REMARK  208  A    between atoms: _495  and  _498
REMARK  209  A    between atoms: _498  and  _499
REMARK  210  A    between atoms: _502  and  _504
REMARK  211  A    between atoms: _504  and  _505
REMARK  212  A    between atoms: _507  and  _509
REMARK  213  A    between atoms: _509  and  _510
REMARK  214  A    between atoms: _509  and  _512
REMARK  215  A    between atoms: _512  and  _513
REMARK  216  A    between atoms: _513  and  _514
REMARK  217  A    between atoms: _514  and  _515
REMARK  218  A    between atoms: _524  and  _526
REMARK  219  A    between atoms: _526  and  _527
REMARK  220  A    between atoms: _526  and  _529
REMARK  221  A    between atoms: _529  and  _530
REMARK                            x       y       z     vdW  Elec       q    Type
REMARK                         _______ _______ _______ _____ _____    ______ ____
ROOT
ATOM      1  O   HOH     1      15.859 -11.774   4.981  0.00  0.00    +0.000 OA
ENDROOT
TORSDOF 0
REMARK  Name = ../refined-set-2016/4hla/4hla_pocket.pdb
REMARK  221 active torsions:
REMARK  status: ('A' for Active; 'I' for Inactive)
REMARK    1  A    between atoms: _1  and  _3
REMARK    2  A    between atoms: _3  and  _4
REMARK    3  A    between atoms: _3  and  _6
REMARK    4  A    between atoms: _6  and  _7
REMARK    5  A    between atoms: _7  and  _8
REMARK    6  A    between atoms: _8  and  _9
REMARK    7  A    between atoms: _18  and  _20
REMARK    8  A    between atoms: _20  and  _21
REMARK    9  A    between atoms: _20  and  _23
REMARK   10  A    between atoms: _23  and  _24
REMARK   11  A    between atoms: _27  and  _29
REMARK   12  A    between atoms: _29  and  _30
REMARK   13  A    between atoms: _29  and  _32
REMARK   14  A    between atoms: _32  and  _33
REMARK   15  A    between atoms: _36  and  _38
REMARK   16  A    between atoms: _38  and  _39
REMARK   17  A    between atoms: _38  and  _41
REMARK   18  A    between atoms: _41  and  _42
REMARK   19  A    between atoms: _45  and  _47
REMARK   20  A    between atoms: _47  and  _48
REMARK   21  A    between atoms: _47  and  _50
REMARK   22  A    between atoms: _50  and  _51
REMARK   23  A    between atoms: _54  and  _56
REMARK   24  A    between atoms: _56  and  _57
REMARK   25  A    between atoms: _59  and  _61
REMARK   26  A    between atoms: _61  and  _62
REMARK   27  A    between atoms: _65  and  _67
REMARK   28  A    between atoms: _67  and  _68
REMARK   29  A    between atoms: _67  and  _70
REMARK   30  A    between atoms: _70  and  _71
REMARK   31  A    between atoms: _74  and  _76
REMARK   32  A    between atoms: _76  and  _77
REMARK   33  A    between atoms: _76  and  _79
REMARK   34  A    between atoms: _79  and  _80
REMARK   35  A    between atoms: _83  and  _85
REMARK   36  A    between atoms: _85  and  _86
REMARK   37  A    between atoms: _85  and  _88
REMARK   38  A    between atoms: _88  and  _89
REMARK   39  A    between atoms: _92  and  _94
REMARK   40  A    between atoms: _94  and  _95
REMARK   41  A    between atoms: _94  and  _97
REMARK   42  A    between atoms: _100  and  _102
REMARK   43  A    between atoms: _102  and  _103
REMARK   44  A    between atoms: _102  and  _105
REMARK   45  A    between atoms: _105  and  _106
REMARK   46  A    between atoms: _106  and  _107
REMARK   47  A    between atoms: _107  and  _108
REMARK   48  A    between atoms: _108  and  _109
REMARK   49  A    between atoms: _113  and  _115
REMARK   50  A    between atoms: _115  and  _116
REMARK   51  A    between atoms: _115  and  _118
REMARK   52  A    between atoms: _118  and  _119
REMARK   53  A    between atoms: _119  and  _120
REMARK   54  A    between atoms: _122  and  _124
REMARK   55  A    between atoms: _124  and  _125
REMARK   56  A    between atoms: _124  and  _127
REMARK   57  A    between atoms: _127  and  _128
REMARK   58  A    between atoms: _131  and  _133
REMARK   59  A    between atoms: _133  and  _134
REMARK   60  A    between atoms: _136  and  _138
REMARK   61  A    between atoms: _138  and  _139
REMARK   62  A    between atoms: _141  and  _143
REMARK   63  A    between atoms: _143  and  _144
REMARK   64  A    between atoms: _143  and  _146
REMARK   65  A    between atoms: _146  and  _147
REMARK   66  A    between atoms: _150  and  _152
REMARK   67  A    between atoms: _152  and  _153
REMARK   68  A    between atoms: _155  and  _157
REMARK   69  A    between atoms: _157  and  _158
REMARK   70  A    between atoms: _160  and  _162
REMARK   71  A    between atoms: _162  and  _163
REMARK   72  A    between atoms: _162  and  _165
REMARK   73  A    between atoms: _165  and  _166
REMARK   74  A    between atoms: _169  and  _171
REMARK   75  A    between atoms: _171  and  _172
REMARK   76  A    between atoms: _171  and  _174
REMARK   77  A    between atoms: _174  and  _175
REMARK   78  A    between atoms: _178  and  _180
REMARK   79  A    between atoms: _180  and  _181
REMARK   80  A    between atoms: _180  and  _183
REMARK   81  A    between atoms: _183  and  _184
REMARK   82  A    between atoms: _188  and  _189
REMARK   83  A    between atoms: _194  and  _196
REMARK   84  A    between atoms: _196  and  _197
REMARK   85  A    between atoms: _196  and  _199
REMARK   86  A    between atoms: _202  and  _204
REMARK   87  A    between atoms: _204  and  _205
REMARK   88  A    between atoms: _204  and  _207
REMARK   89  A    between atoms: _207  and  _208
REMARK   90  A    between atoms: _213  and  _215
REMARK   91  A    between atoms: _215  and  _216
REMARK   92  A    between atoms: _215  and  _218
REMARK   93  A    between atoms: _218  and  _219
REMARK   94  A    between atoms: _222  and  _224
REMARK   95  A    between atoms: _224  and  _225
REMARK   96  A    between atoms: _224  and  _227
REMARK   97  A    between atoms: _227  and  _228
REMARK   98  A    between atoms: _231  and  _233
REMARK   99  A    between atoms: _233  and  _234
REMARK  100  A    between atoms: _236  and  _238
REMARK  101  A    between atoms: _238  and  _239
REMARK  102  A    between atoms: _238  and  _241
REMARK  103  A    between atoms: _241  and  _242
REMARK  104  A    between atoms: _242  and  _243
REMARK  105  A    between atoms: _243  and  _244
REMARK  106  A    between atoms: _253  and  _255
REMARK  107  A    between atoms: _255  and  _256
REMARK  108  A    between atoms: _255  and  _258
REMARK  109  A    between atoms: _258  and  _259
REMARK  110  A    between atoms: _264  and  _266
REMARK  111  A    between atoms: _266  and  _267
REMARK  112  A    between atoms: _266  and  _269
REMARK  113  A    between atoms: _269  and  _270
REMARK  114  A    between atoms: _270  and  _271
REMARK  115  A    between atoms: _271  and  _272
REMARK  116  A    between atoms: _281  and  _283
REMARK  117  A    between atoms: _283  and  _284
REMARK  118  A    between atoms: _283  and  _286
REMARK  119  A    between atoms: _286  and  _287
REMARK  120  A    between atoms: _290  and  _292
REMARK  121  A    between atoms: _292  and  _293
REMARK  122  A    between atoms: _292  and  _295
REMARK  123  A    between atoms: _295  and  _296
REMARK  124  A    between atoms: _299  and  _301
REMARK  125  A    between atoms: _301  and  _302
REMARK  126  A    between atoms: _301  and  _304
REMARK  127  A    between atoms: _304  and  _305
REMARK  128  A    between atoms: _308  and  _310
REMARK  129  A    between atoms: _310  and  _311
REMARK  130  A    between atoms: _310  and  _313
REMARK  131  A    between atoms: _313  and  _314
REMARK  132  A    between atoms: _317  and  _319
REMARK  133  A    between atoms: _319  and  _320
REMARK  134  A    between atoms: _322  and  _324
REMARK  135  A    between atoms: _324  and  _325
REMARK  136  A    between atoms: _328  and  _330
REMARK  137  A    between atoms: _330  and  _331
REMARK  138  A    between atoms: _330  and  _333
REMARK  139  A    between atoms: _333  and  _334
REMARK  140  A    between atoms: _337  and  _339
REMARK  141  A    between atoms: _339  and  _340
REMARK  142  A    between atoms: _339  and  _342
REMARK  143  A    between atoms: _342  and  _343
REMARK  144  A    between atoms: _346  and  _348
REMARK  145  A    between atoms: _348  and  _349
REMARK  146  A    between atoms: _348  and  _351
REMARK  147  A    between atoms: _351  and  _352
REMARK  148  A    between atoms: _355  and  _357
REMARK  149  A    between atoms: _357  and  _358
REMARK  150  A    between atoms: _357  and  _360
REMARK  151  A    between atoms: _363  and  _365
REMARK  152  A    between atoms: _365  and  _366
REMARK  153  A    between atoms: _365  and  _368
REMARK  154  A    between atoms: _368  and  _369
REMARK  155  A    between atoms: _369  and  _370
REMARK  156  A    between atoms: _370  and  _371
REMARK  157  A    between atoms: _371  and  _372
REMARK  158  A    between atoms: _376  and  _378
REMARK  159  A    between atoms: _378  and  _379
REMARK  160  A    between atoms: _378  and  _381
REMARK  161  A    between atoms: _381  and  _382
REMARK  162  A    between atoms: _382  and  _383
REMARK  163  A    between atoms: _385  and  _387
REMARK  164  A    between atoms: _387  and  _388
REMARK  165  A    between atoms: _387  and  _390
REMARK  166  A    between atoms: _390  and  _391
REMARK  167  A    between atoms: _394  and  _396
REMARK  168  A    between atoms: _396  and  _397
REMARK  169  A    between atoms: _399  and  _401
REMARK  170  A    between atoms: _401  and  _402
REMARK  171  A    between atoms: _404  and  _406
REMARK  172  A    between atoms: _406  and  _407
REMARK  173  A    between atoms: _406  and  _409
REMARK  174  A    between atoms: _409  and  _410
REMARK  175  A    between atoms: _413  and  _415
REMARK  176  A    between atoms: _415  and  _416
REMARK  177  A    between atoms: _418  and  _420
REMARK  178  A    between atoms: _420  and  _421
REMARK  179  A    between atoms: _423  and  _425
REMARK  180  A    between atoms: _425  and  _426
REMARK  181  A    between atoms: _425  and  _428
REMARK  182  A    between atoms: _428  and  _429
REMARK  183  A    between atoms: _432  and  _434
REMARK  184  A    between atoms: _434  and  _435
REMARK  185  A    between atoms: _434  and  _437
REMARK  186  A    between atoms: _440  and  _442
REMARK  187  A    between atoms: _442  and  _443
REMARK  188  A    between atoms: _442  and  _445
REMARK  189  A    between atoms: _445  and  _446
REMARK  190  A    between atoms: _449  and  _451
REMARK  191  A    between atoms: _451  and  _452
REMARK  192  A    between atoms: _451  and  _454
REMARK  193  A    between atoms: _454  and  _455
REMARK  194  A    between atoms: _459  and  _460
REMARK  195  A    between atoms: _465  and  _467
REMARK  196  A    between atoms: _467  and  _468
REMARK  197  A    between atoms: _467  and  _470
REMARK  198  A    between atoms: _473  and  _475
REMARK  199  A    between atoms: _475  and  _476
REMARK  200  A    between atoms: _475  and  _478
REMARK  201  A    between atoms: _478  and  _479
REMARK  202  A    between atoms: _484  and  _486
REMARK  203  A    between atoms: _486  and  _487
REMARK  204  A    between atoms: _486  and  _489
REMARK  205  A    between atoms: _489  and  _490
REMARK  206  A    between atoms: _493  and  _495
REMARK  207  A    between atoms: _495  and  _496
REMARK  208  A    between atoms: _495  and  _498
REMARK  209  A    between atoms: _498  and  _499
REMARK  210  A    between atoms: _502  and  _504
REMARK  211  A    between atoms: _504  and  _505
REMARK  212  A    between atoms: _507  and  _509
REMARK  213  A    between atoms: _509  and  _510
REMARK  214  A    between atoms: _509  and  _512
REMARK  215  A    between atoms: _512  and  _513
REMARK  216  A    between atoms: _513  and  _514
REMARK  217  A    between atoms: _514  and  _515
REMARK  218  A    between atoms: _524  and  _526
REMARK  219  A    between atoms: _526  and  _527
REMARK  220  A    between atoms: _526  and  _529
REMARK  221  A    between atoms: _529  and  _530
REMARK                            x       y       z     vdW  Elec       q    Type
REMARK                         _______ _______ _______ _____ _____    ______ ____
ROOT
ATOM      1  O   HOH     1       9.709 -13.456   9.340  0.00  0.00    +0.000 OA
ENDROOT
TORSDOF 0
REMARK  Name = ../refined-set-2016/4hla/4hla_pocket.pdb
REMARK  221 active torsions:
REMARK  status: ('A' for Active; 'I' for Inactive)
REMARK    1  A    between atoms: _1  and  _3
REMARK    2  A    between atoms: _3  and  _4
REMARK    3  A    between atoms: _3  and  _6
REMARK    4  A    between atoms: _6  and  _7
REMARK    5  A    between atoms: _7  and  _8
REMARK    6  A    between atoms: _8  and  _9
REMARK    7  A    between atoms: _18  and  _20
REMARK    8  A    between atoms: _20  and  _21
REMARK    9  A    between atoms: _20  and  _23
REMARK   10  A    between atoms: _23  and  _24
REMARK   11  A    between atoms: _27  and  _29
REMARK   12  A    between atoms: _29  and  _30
REMARK   13  A    between atoms: _29  and  _32
REMARK   14  A    between atoms: _32  and  _33
REMARK   15  A    between atoms: _36  and  _38
REMARK   16  A    between atoms: _38  and  _39
REMARK   17  A    between atoms: _38  and  _41
REMARK   18  A    between atoms: _41  and  _42
REMARK   19  A    between atoms: _45  and  _47
REMARK   20  A    between atoms: _47  and  _48
REMARK   21  A    between atoms: _47  and  _50
REMARK   22  A    between atoms: _50  and  _51
REMARK   23  A    between atoms: _54  and  _56
REMARK   24  A    between atoms: _56  and  _57
REMARK   25  A    between atoms: _59  and  _61
REMARK   26  A    between atoms: _61  and  _62
REMARK   27  A    between atoms: _65  and  _67
REMARK   28  A    between atoms: _67  and  _68
REMARK   29  A    between atoms: _67  and  _70
REMARK   30  A    between atoms: _70  and  _71
REMARK   31  A    between atoms: _74  and  _76
REMARK   32  A    between atoms: _76  and  _77
REMARK   33  A    between atoms: _76  and  _79
REMARK   34  A    between atoms: _79  and  _80
REMARK   35  A    between atoms: _83  and  _85
REMARK   36  A    between atoms: _85  and  _86
REMARK   37  A    between atoms: _85  and  _88
REMARK   38  A    between atoms: _88  and  _89
REMARK   39  A    between atoms: _92  and  _94
REMARK   40  A    between atoms: _94  and  _95
REMARK   41  A    between atoms: _94  and  _97
REMARK   42  A    between atoms: _100  and  _102
REMARK   43  A    between atoms: _102  and  _103
REMARK   44  A    between atoms: _102  and  _105
REMARK   45  A    between atoms: _105  and  _106
REMARK   46  A    between atoms: _106  and  _107
REMARK   47  A    between atoms: _107  and  _108
REMARK   48  A    between atoms: _108  and  _109
REMARK   49  A    between atoms: _113  and  _115
REMARK   50  A    between atoms: _115  and  _116
REMARK   51  A    between atoms: _115  and  _118
REMARK   52  A    between atoms: _118  and  _119
REMARK   53  A    between atoms: _119  and  _120
REMARK   54  A    between atoms: _122  and  _124
REMARK   55  A    between atoms: _124  and  _125
REMARK   56  A    between atoms: _124  and  _127
REMARK   57  A    between atoms: _127  and  _128
REMARK   58  A    between atoms: _131  and  _133
REMARK   59  A    between atoms: _133  and  _134
REMARK   60  A    between atoms: _136  and  _138
REMARK   61  A    between atoms: _138  and  _139
REMARK   62  A    between atoms: _141  and  _143
REMARK   63  A    between atoms: _143  and  _144
REMARK   64  A    between atoms: _143  and  _146
REMARK   65  A    between atoms: _146  and  _147
REMARK   66  A    between atoms: _150  and  _152
REMARK   67  A    between atoms: _152  and  _153
REMARK   68  A    between atoms: _155  and  _157
REMARK   69  A    between atoms: _157  and  _158
REMARK   70  A    between atoms: _160  and  _162
REMARK   71  A    between atoms: _162  and  _163
REMARK   72  A    between atoms: _162  and  _165
REMARK   73  A    between atoms: _165  and  _166
REMARK   74  A    between atoms: _169  and  _171
REMARK   75  A    between atoms: _171  and  _172
REMARK   76  A    between atoms: _171  and  _174
REMARK   77  A    between atoms: _174  and  _175
REMARK   78  A    between atoms: _178  and  _180
REMARK   79  A    between atoms: _180  and  _181
REMARK   80  A    between atoms: _180  and  _183
REMARK   81  A    between atoms: _183  and  _184
REMARK   82  A    between atoms: _188  and  _189
REMARK   83  A    between atoms: _194  and  _196
REMARK   84  A    between atoms: _196  and  _197
REMARK   85  A    between atoms: _196  and  _199
REMARK   86  A    between atoms: _202  and  _204
REMARK   87  A    between atoms: _204  and  _205
REMARK   88  A    between atoms: _204  and  _207
REMARK   89  A    between atoms: _207  and  _208
REMARK   90  A    between atoms: _213  and  _215
REMARK   91  A    between atoms: _215  and  _216
REMARK   92  A    between atoms: _215  and  _218
REMARK   93  A    between atoms: _218  and  _219
REMARK   94  A    between atoms: _222  and  _224
REMARK   95  A    between atoms: _224  and  _225
REMARK   96  A    between atoms: _224  and  _227
REMARK   97  A    between atoms: _227  and  _228
REMARK   98  A    between atoms: _231  and  _233
REMARK   99  A    between atoms: _233  and  _234
REMARK  100  A    between atoms: _236  and  _238
REMARK  101  A    between atoms: _238  and  _239
REMARK  102  A    between atoms: _238  and  _241
REMARK  103  A    between atoms: _241  and  _242
REMARK  104  A    between atoms: _242  and  _243
REMARK  105  A    between atoms: _243  and  _244
REMARK  106  A    between atoms: _253  and  _255
REMARK  107  A    between atoms: _255  and  _256
REMARK  108  A    between atoms: _255  and  _258
REMARK  109  A    between atoms: _258  and  _259
REMARK  110  A    between atoms: _264  and  _266
REMARK  111  A    between atoms: _266  and  _267
REMARK  112  A    between atoms: _266  and  _269
REMARK  113  A    between atoms: _269  and  _270
REMARK  114  A    between atoms: _270  and  _271
REMARK  115  A    between atoms: _271  and  _272
REMARK  116  A    between atoms: _281  and  _283
REMARK  117  A    between atoms: _283  and  _284
REMARK  118  A    between atoms: _283  and  _286
REMARK  119  A    between atoms: _286  and  _287
REMARK  120  A    between atoms: _290  and  _292
REMARK  121  A    between atoms: _292  and  _293
REMARK  122  A    between atoms: _292  and  _295
REMARK  123  A    between atoms: _295  and  _296
REMARK  124  A    between atoms: _299  and  _301
REMARK  125  A    between atoms: _301  and  _302
REMARK  126  A    between atoms: _301  and  _304
REMARK  127  A    between atoms: _304  and  _305
REMARK  128  A    between atoms: _308  and  _310
REMARK  129  A    between atoms: _310  and  _311
REMARK  130  A    between atoms: _310  and  _313
REMARK  131  A    between atoms: _313  and  _314
REMARK  132  A    between atoms: _317  and  _319
REMARK  133  A    between atoms: _319  and  _320
REMARK  134  A    between atoms: _322  and  _324
REMARK  135  A    between atoms: _324  and  _325
REMARK  136  A    between atoms: _328  and  _330
REMARK  137  A    between atoms: _330  and  _331
REMARK  138  A    between atoms: _330  and  _333
REMARK  139  A    between atoms: _333  and  _334
REMARK  140  A    between atoms: _337  and  _339
REMARK  141  A    between atoms: _339  and  _340
REMARK  142  A    between atoms: _339  and  _342
REMARK  143  A    between atoms: _342  and  _343
REMARK  144  A    between atoms: _346  and  _348
REMARK  145  A    between atoms: _348  and  _349
REMARK  146  A    between atoms: _348  and  _351
REMARK  147  A    between atoms: _351  and  _352
REMARK  148  A    between atoms: _355  and  _357
REMARK  149  A    between atoms: _357  and  _358
REMARK  150  A    between atoms: _357  and  _360
REMARK  151  A    between atoms: _363  and  _365
REMARK  152  A    between atoms: _365  and  _366
REMARK  153  A    between atoms: _365  and  _368
REMARK  154  A    between atoms: _368  and  _369
REMARK  155  A    between atoms: _369  and  _370
REMARK  156  A    between atoms: _370  and  _371
REMARK  157  A    between atoms: _371  and  _372
REMARK  158  A    between atoms: _376  and  _378
REMARK  159  A    between atoms: _378  and  _379
REMARK  160  A    between atoms: _378  and  _381
REMARK  161  A    between atoms: _381  and  _382
REMARK  162  A    between atoms: _382  and  _383
REMARK  163  A    between atoms: _385  and  _387
REMARK  164  A    between atoms: _387  and  _388
REMARK  165  A    between atoms: _387  and  _390
REMARK  166  A    between atoms: _390  and  _391
REMARK  167  A    between atoms: _394  and  _396
REMARK  168  A    between atoms: _396  and  _397
REMARK  169  A    between atoms: _399  and  _401
REMARK  170  A    between atoms: _401  and  _402
REMARK  171  A    between atoms: _404  and  _406
REMARK  172  A    between atoms: _406  and  _407
REMARK  173  A    between atoms: _406  and  _409
REMARK  174  A    between atoms: _409  and  _410
REMARK  175  A    between atoms: _413  and  _415
REMARK  176  A    between atoms: _415  and  _416
REMARK  177  A    between atoms: _418  and  _420
REMARK  178  A    between atoms: _420  and  _421
REMARK  179  A    between atoms: _423  and  _425
REMARK  180  A    between atoms: _425  and  _426
REMARK  181  A    between atoms: _425  and  _428
REMARK  182  A    between atoms: _428  and  _429
REMARK  183  A    between atoms: _432  and  _434
REMARK  184  A    between atoms: _434  and  _435
REMARK  185  A    between atoms: _434  and  _437
REMARK  186  A    between atoms: _440  and  _442
REMARK  187  A    between atoms: _442  and  _443
REMARK  188  A    between atoms: _442  and  _445
REMARK  189  A    between atoms: _445  and  _446
REMARK  190  A    between atoms: _449  and  _451
REMARK  191  A    between atoms: _451  and  _452
REMARK  192  A    between atoms: _451  and  _454
REMARK  193  A    between atoms: _454  and  _455
REMARK  194  A    between atoms: _459  and  _460
REMARK  195  A    between atoms: _465  and  _467
REMARK  196  A    between atoms: _467  and  _468
REMARK  197  A    between atoms: _467  and  _470
REMARK  198  A    between atoms: _473  and  _475
REMARK  199  A    between atoms: _475  and  _476
REMARK  200  A    between atoms: _475  and  _478
REMARK  201  A    between atoms: _478  and  _479
REMARK  202  A    between atoms: _484  and  _486
REMARK  203  A    between atoms: _486  and  _487
REMARK  204  A    between atoms: _486  and  _489
REMARK  205  A    between atoms: _489  and  _490
REMARK  206  A    between atoms: _493  and  _495
REMARK  207  A    between atoms: _495  and  _496
REMARK  208  A    between atoms: _495  and  _498
REMARK  209  A    between atoms: _498  and  _499
REMARK  210  A    between atoms: _502  and  _504
REMARK  211  A    between atoms: _504  and  _505
REMARK  212  A    between atoms: _507  and  _509
REMARK  213  A    between atoms: _509  and  _510
REMARK  214  A    between atoms: _509  and  _512
REMARK  215  A    between atoms: _512  and  _513
REMARK  216  A    between atoms: _513  and  _514
REMARK  217  A    between atoms: _514  and  _515
REMARK  218  A    between atoms: _524  and  _526
REMARK  219  A    between atoms: _526  and  _527
REMARK  220  A    between atoms: _526  and  _529
REMARK  221  A    between atoms: _529  and  _530
REMARK                            x       y       z     vdW  Elec       q    Type
REMARK                         _______ _______ _______ _____ _____    ______ ____
ROOT
ATOM      1  O   HOH     1       6.075 -21.857  -3.907  0.00  0.00    +0.000 OA
ENDROOT
TORSDOF 0
REMARK  Name = ../refined-set-2016/4hla/4hla_pocket.pdb
REMARK  221 active torsions:
REMARK  status: ('A' for Active; 'I' for Inactive)
REMARK    1  A    between atoms: _1  and  _3
REMARK    2  A    between atoms: _3  and  _4
REMARK    3  A    between atoms: _3  and  _6
REMARK    4  A    between atoms: _6  and  _7
REMARK    5  A    between atoms: _7  and  _8
REMARK    6  A    between atoms: _8  and  _9
REMARK    7  A    between atoms: _18  and  _20
REMARK    8  A    between atoms: _20  and  _21
REMARK    9  A    between atoms: _20  and  _23
REMARK   10  A    between atoms: _23  and  _24
REMARK   11  A    between atoms: _27  and  _29
REMARK   12  A    between atoms: _29  and  _30
REMARK   13  A    between atoms: _29  and  _32
REMARK   14  A    between atoms: _32  and  _33
REMARK   15  A    between atoms: _36  and  _38
REMARK   16  A    between atoms: _38  and  _39
REMARK   17  A    between atoms: _38  and  _41
REMARK   18  A    between atoms: _41  and  _42
REMARK   19  A    between atoms: _45  and  _47
REMARK   20  A    between atoms: _47  and  _48
REMARK   21  A    between atoms: _47  and  _50
REMARK   22  A    between atoms: _50  and  _51
REMARK   23  A    between atoms: _54  and  _56
REMARK   24  A    between atoms: _56  and  _57
REMARK   25  A    between atoms: _59  and  _61
REMARK   26  A    between atoms: _61  and  _62
REMARK   27  A    between atoms: _65  and  _67
REMARK   28  A    between atoms: _67  and  _68
REMARK   29  A    between atoms: _67  and  _70
REMARK   30  A    between atoms: _70  and  _71
REMARK   31  A    between atoms: _74  and  _76
REMARK   32  A    between atoms: _76  and  _77
REMARK   33  A    between atoms: _76  and  _79
REMARK   34  A    between atoms: _79  and  _80
REMARK   35  A    between atoms: _83  and  _85
REMARK   36  A    between atoms: _85  and  _86
REMARK   37  A    between atoms: _85  and  _88
REMARK   38  A    between atoms: _88  and  _89
REMARK   39  A    between atoms: _92  and  _94
REMARK   40  A    between atoms: _94  and  _95
REMARK   41  A    between atoms: _94  and  _97
REMARK   42  A    between atoms: _100  and  _102
REMARK   43  A    between atoms: _102  and  _103
REMARK   44  A    between atoms: _102  and  _105
REMARK   45  A    between atoms: _105  and  _106
REMARK   46  A    between atoms: _106  and  _107
REMARK   47  A    between atoms: _107  and  _108
REMARK   48  A    between atoms: _108  and  _109
REMARK   49  A    between atoms: _113  and  _115
REMARK   50  A    between atoms: _115  and  _116
REMARK   51  A    between atoms: _115  and  _118
REMARK   52  A    between atoms: _118  and  _119
REMARK   53  A    between atoms: _119  and  _120
REMARK   54  A    between atoms: _122  and  _124
REMARK   55  A    between atoms: _124  and  _125
REMARK   56  A    between atoms: _124  and  _127
REMARK   57  A    between atoms: _127  and  _128
REMARK   58  A    between atoms: _131  and  _133
REMARK   59  A    between atoms: _133  and  _134
REMARK   60  A    between atoms: _136  and  _138
REMARK   61  A    between atoms: _138  and  _139
REMARK   62  A    between atoms: _141  and  _143
REMARK   63  A    between atoms: _143  and  _144
REMARK   64  A    between atoms: _143  and  _146
REMARK   65  A    between atoms: _146  and  _147
REMARK   66  A    between atoms: _150  and  _152
REMARK   67  A    between atoms: _152  and  _153
REMARK   68  A    between atoms: _155  and  _157
REMARK   69  A    between atoms: _157  and  _158
REMARK   70  A    between atoms: _160  and  _162
REMARK   71  A    between atoms: _162  and  _163
REMARK   72  A    between atoms: _162  and  _165
REMARK   73  A    between atoms: _165  and  _166
REMARK   74  A    between atoms: _169  and  _171
REMARK   75  A    between atoms: _171  and  _172
REMARK   76  A    between atoms: _171  and  _174
REMARK   77  A    between atoms: _174  and  _175
REMARK   78  A    between atoms: _178  and  _180
REMARK   79  A    between atoms: _180  and  _181
REMARK   80  A    between atoms: _180  and  _183
REMARK   81  A    between atoms: _183  and  _184
REMARK   82  A    between atoms: _188  and  _189
REMARK   83  A    between atoms: _194  and  _196
REMARK   84  A    between atoms: _196  and  _197
REMARK   85  A    between atoms: _196  and  _199
REMARK   86  A    between atoms: _202  and  _204
REMARK   87  A    between atoms: _204  and  _205
REMARK   88  A    between atoms: _204  and  _207
REMARK   89  A    between atoms: _207  and  _208
REMARK   90  A    between atoms: _213  and  _215
REMARK   91  A    between atoms: _215  and  _216
REMARK   92  A    between atoms: _215  and  _218
REMARK   93  A    between atoms: _218  and  _219
REMARK   94  A    between atoms: _222  and  _224
REMARK   95  A    between atoms: _224  and  _225
REMARK   96  A    between atoms: _224  and  _227
REMARK   97  A    between atoms: _227  and  _228
REMARK   98  A    between atoms: _231  and  _233
REMARK   99  A    between atoms: _233  and  _234
REMARK  100  A    between atoms: _236  and  _238
REMARK  101  A    between atoms: _238  and  _239
REMARK  102  A    between atoms: _238  and  _241
REMARK  103  A    between atoms: _241  and  _242
REMARK  104  A    between atoms: _242  and  _243
REMARK  105  A    between atoms: _243  and  _244
REMARK  106  A    between atoms: _253  and  _255
REMARK  107  A    between atoms: _255  and  _256
REMARK  108  A    between atoms: _255  and  _258
REMARK  109  A    between atoms: _258  and  _259
REMARK  110  A    between atoms: _264  and  _266
REMARK  111  A    between atoms: _266  and  _267
REMARK  112  A    between atoms: _266  and  _269
REMARK  113  A    between atoms: _269  and  _270
REMARK  114  A    between atoms: _270  and  _271
REMARK  115  A    between atoms: _271  and  _272
REMARK  116  A    between atoms: _281  and  _283
REMARK  117  A    between atoms: _283  and  _284
REMARK  118  A    between atoms: _283  and  _286
REMARK  119  A    between atoms: _286  and  _287
REMARK  120  A    between atoms: _290  and  _292
REMARK  121  A    between atoms: _292  and  _293
REMARK  122  A    between atoms: _292  and  _295
REMARK  123  A    between atoms: _295  and  _296
REMARK  124  A    between atoms: _299  and  _301
REMARK  125  A    between atoms: _301  and  _302
REMARK  126  A    between atoms: _301  and  _304
REMARK  127  A    between atoms: _304  and  _305
REMARK  128  A    between atoms: _308  and  _310
REMARK  129  A    between atoms: _310  and  _311
REMARK  130  A    between atoms: _310  and  _313
REMARK  131  A    between atoms: _313  and  _314
REMARK  132  A    between atoms: _317  and  _319
REMARK  133  A    between atoms: _319  and  _320
REMARK  134  A    between atoms: _322  and  _324
REMARK  135  A    between atoms: _324  and  _325
REMARK  136  A    between atoms: _328  and  _330
REMARK  137  A    between atoms: _330  and  _331
REMARK  138  A    between atoms: _330  and  _333
REMARK  139  A    between atoms: _333  and  _334
REMARK  140  A    between atoms: _337  and  _339
REMARK  141  A    between atoms: _339  and  _340
REMARK  142  A    between atoms: _339  and  _342
REMARK  143  A    between atoms: _342  and  _343
REMARK  144  A    between atoms: _346  and  _348
REMARK  145  A    between atoms: _348  and  _349
REMARK  146  A    between atoms: _348  and  _351
REMARK  147  A    between atoms: _351  and  _352
REMARK  148  A    between atoms: _355  and  _357
REMARK  149  A    between atoms: _357  and  _358
REMARK  150  A    between atoms: _357  and  _360
REMARK  151  A    between atoms: _363  and  _365
REMARK  152  A    between atoms: _365  and  _366
REMARK  153  A    between atoms: _365  and  _368
REMARK  154  A    between atoms: _368  and  _369
REMARK  155  A    between atoms: _369  and  _370
REMARK  156  A    between atoms: _370  and  _371
REMARK  157  A    between atoms: _371  and  _372
REMARK  158  A    between atoms: _376  and  _378
REMARK  159  A    between atoms: _378  and  _379
REMARK  160  A    between atoms: _378  and  _381
REMARK  161  A    between atoms: _381  and  _382
REMARK  162  A    between atoms: _382  and  _383
REMARK  163  A    between atoms: _385  and  _387
REMARK  164  A    between atoms: _387  and  _388
REMARK  165  A    between atoms: _387  and  _390
REMARK  166  A    between atoms: _390  and  _391
REMARK  167  A    between atoms: _394  and  _396
REMARK  168  A    between atoms: _396  and  _397
REMARK  169  A    between atoms: _399  and  _401
REMARK  170  A    between atoms: _401  and  _402
REMARK  171  A    between atoms: _404  and  _406
REMARK  172  A    between atoms: _406  and  _407
REMARK  173  A    between atoms: _406  and  _409
REMARK  174  A    between atoms: _409  and  _410
REMARK  175  A    between atoms: _413  and  _415
REMARK  176  A    between atoms: _415  and  _416
REMARK  177  A    between atoms: _418  and  _420
REMARK  178  A    between atoms: _420  and  _421
REMARK  179  A    between atoms: _423  and  _425
REMARK  180  A    between atoms: _425  and  _426
REMARK  181  A    between atoms: _425  and  _428
REMARK  182  A    between atoms: _428  and  _429
REMARK  183  A    between atoms: _432  and  _434
REMARK  184  A    between atoms: _434  and  _435
REMARK  185  A    between atoms: _434  and  _437
REMARK  186  A    between atoms: _440  and  _442
REMARK  187  A    between atoms: _442  and  _443
REMARK  188  A    between atoms: _442  and  _445
REMARK  189  A    between atoms: _445  and  _446
REMARK  190  A    between atoms: _449  and  _451
REMARK  191  A    between atoms: _451  and  _452
REMARK  192  A    between atoms: _451  and  _454
REMARK  193  A    between atoms: _454  and  _455
REMARK  194  A    between atoms: _459  and  _460
REMARK  195  A    between atoms: _465  and  _467
REMARK  196  A    between atoms: _467  and  _468
REMARK  197  A    between atoms: _467  and  _470
REMARK  198  A    between atoms: _473  and  _475
REMARK  199  A    between atoms: _475  and  _476
REMARK  200  A    between atoms: _475  and  _478
REMARK  201  A    between atoms: _478  and  _479
REMARK  202  A    between atoms: _484  and  _486
REMARK  203  A    between atoms: _486  and  _487
REMARK  204  A    between atoms: _486  and  _489
REMARK  205  A    between atoms: _489  and  _490
REMARK  206  A    between atoms: _493  and  _495
REMARK  207  A    between atoms: _495  and  _496
REMARK  208  A    between atoms: _495  and  _498
REMARK  209  A    between atoms: _498  and  _499
REMARK  210  A    between atoms: _502  and  _504
REMARK  211  A    between atoms: _504  and  _505
REMARK  212  A    between atoms: _507  and  _509
REMARK  213  A    between atoms: _509  and  _510
REMARK  214  A    between atoms: _509  and  _512
REMARK  215  A    between atoms: _512  and  _513
REMARK  216  A    between atoms: _513  and  _514
REMARK  217  A    between atoms: _514  and  _515
REMARK  218  A    between atoms: _524  and  _526
REMARK  219  A    between atoms: _526  and  _527
REMARK  220  A    between atoms: _526  and  _529
REMARK  221  A    between atoms: _529  and  _530
REMARK                            x       y       z     vdW  Elec       q    Type
REMARK                         _______ _______ _______ _____ _____    ______ ____
ROOT
ATOM      1  O   HOH     1       8.501 -19.164  13.341  0.00  0.00    +0.000 OA
ENDROOT
TORSDOF 0
REMARK  Name = ../refined-set-2016/4hla/4hla_pocket.pdb
REMARK  221 active torsions:
REMARK  status: ('A' for Active; 'I' for Inactive)
REMARK    1  A    between atoms: _1  and  _3
REMARK    2  A    between atoms: _3  and  _4
REMARK    3  A    between atoms: _3  and  _6
REMARK    4  A    between atoms: _6  and  _7
REMARK    5  A    between atoms: _7  and  _8
REMARK    6  A    between atoms: _8  and  _9
REMARK    7  A    between atoms: _18  and  _20
REMARK    8  A    between atoms: _20  and  _21
REMARK    9  A    between atoms: _20  and  _23
REMARK   10  A    between atoms: _23  and  _24
REMARK   11  A    between atoms: _27  and  _29
REMARK   12  A    between atoms: _29  and  _30
REMARK   13  A    between atoms: _29  and  _32
REMARK   14  A    between atoms: _32  and  _33
REMARK   15  A    between atoms: _36  and  _38
REMARK   16  A    between atoms: _38  and  _39
REMARK   17  A    between atoms: _38  and  _41
REMARK   18  A    between atoms: _41  and  _42
REMARK   19  A    between atoms: _45  and  _47
REMARK   20  A    between atoms: _47  and  _48
REMARK   21  A    between atoms: _47  and  _50
REMARK   22  A    between atoms: _50  and  _51
REMARK   23  A    between atoms: _54  and  _56
REMARK   24  A    between atoms: _56  and  _57
REMARK   25  A    between atoms: _59  and  _61
REMARK   26  A    between atoms: _61  and  _62
REMARK   27  A    between atoms: _65  and  _67
REMARK   28  A    between atoms: _67  and  _68
REMARK   29  A    between atoms: _67  and  _70
REMARK   30  A    between atoms: _70  and  _71
REMARK   31  A    between atoms: _74  and  _76
REMARK   32  A    between atoms: _76  and  _77
REMARK   33  A    between atoms: _76  and  _79
REMARK   34  A    between atoms: _79  and  _80
REMARK   35  A    between atoms: _83  and  _85
REMARK   36  A    between atoms: _85  and  _86
REMARK   37  A    between atoms: _85  and  _88
REMARK   38  A    between atoms: _88  and  _89
REMARK   39  A    between atoms: _92  and  _94
REMARK   40  A    between atoms: _94  and  _95
REMARK   41  A    between atoms: _94  and  _97
REMARK   42  A    between atoms: _100  and  _102
REMARK   43  A    between atoms: _102  and  _103
REMARK   44  A    between atoms: _102  and  _105
REMARK   45  A    between atoms: _105  and  _106
REMARK   46  A    between atoms: _106  and  _107
REMARK   47  A    between atoms: _107  and  _108
REMARK   48  A    between atoms: _108  and  _109
REMARK   49  A    between atoms: _113  and  _115
REMARK   50  A    between atoms: _115  and  _116
REMARK   51  A    between atoms: _115  and  _118
REMARK   52  A    between atoms: _118  and  _119
REMARK   53  A    between atoms: _119  and  _120
REMARK   54  A    between atoms: _122  and  _124
REMARK   55  A    between atoms: _124  and  _125
REMARK   56  A    between atoms: _124  and  _127
REMARK   57  A    between atoms: _127  and  _128
REMARK   58  A    between atoms: _131  and  _133
REMARK   59  A    between atoms: _133  and  _134
REMARK   60  A    between atoms: _136  and  _138
REMARK   61  A    between atoms: _138  and  _139
REMARK   62  A    between atoms: _141  and  _143
REMARK   63  A    between atoms: _143  and  _144
REMARK   64  A    between atoms: _143  and  _146
REMARK   65  A    between atoms: _146  and  _147
REMARK   66  A    between atoms: _150  and  _152
REMARK   67  A    between atoms: _152  and  _153
REMARK   68  A    between atoms: _155  and  _157
REMARK   69  A    between atoms: _157  and  _158
REMARK   70  A    between atoms: _160  and  _162
REMARK   71  A    between atoms: _162  and  _163
REMARK   72  A    between atoms: _162  and  _165
REMARK   73  A    between atoms: _165  and  _166
REMARK   74  A    between atoms: _169  and  _171
REMARK   75  A    between atoms: _171  and  _172
REMARK   76  A    between atoms: _171  and  _174
REMARK   77  A    between atoms: _174  and  _175
REMARK   78  A    between atoms: _178  and  _180
REMARK   79  A    between atoms: _180  and  _181
REMARK   80  A    between atoms: _180  and  _183
REMARK   81  A    between atoms: _183  and  _184
REMARK   82  A    between atoms: _188  and  _189
REMARK   83  A    between atoms: _194  and  _196
REMARK   84  A    between atoms: _196  and  _197
REMARK   85  A    between atoms: _196  and  _199
REMARK   86  A    between atoms: _202  and  _204
REMARK   87  A    between atoms: _204  and  _205
REMARK   88  A    between atoms: _204  and  _207
REMARK   89  A    between atoms: _207  and  _208
REMARK   90  A    between atoms: _213  and  _215
REMARK   91  A    between atoms: _215  and  _216
REMARK   92  A    between atoms: _215  and  _218
REMARK   93  A    between atoms: _218  and  _219
REMARK   94  A    between atoms: _222  and  _224
REMARK   95  A    between atoms: _224  and  _225
REMARK   96  A    between atoms: _224  and  _227
REMARK   97  A    between atoms: _227  and  _228
REMARK   98  A    between atoms: _231  and  _233
REMARK   99  A    between atoms: _233  and  _234
REMARK  100  A    between atoms: _236  and  _238
REMARK  101  A    between atoms: _238  and  _239
REMARK  102  A    between atoms: _238  and  _241
REMARK  103  A    between atoms: _241  and  _242
REMARK  104  A    between atoms: _242  and  _243
REMARK  105  A    between atoms: _243  and  _244
REMARK  106  A    between atoms: _253  and  _255
REMARK  107  A    between atoms: _255  and  _256
REMARK  108  A    between atoms: _255  and  _258
REMARK  109  A    between atoms: _258  and  _259
REMARK  110  A    between atoms: _264  and  _266
REMARK  111  A    between atoms: _266  and  _267
REMARK  112  A    between atoms: _266  and  _269
REMARK  113  A    between atoms: _269  and  _270
REMARK  114  A    between atoms: _270  and  _271
REMARK  115  A    between atoms: _271  and  _272
REMARK  116  A    between atoms: _281  and  _283
REMARK  117  A    between atoms: _283  and  _284
REMARK  118  A    between atoms: _283  and  _286
REMARK  119  A    between atoms: _286  and  _287
REMARK  120  A    between atoms: _290  and  _292
REMARK  121  A    between atoms: _292  and  _293
REMARK  122  A    between atoms: _292  and  _295
REMARK  123  A    between atoms: _295  and  _296
REMARK  124  A    between atoms: _299  and  _301
REMARK  125  A    between atoms: _301  and  _302
REMARK  126  A    between atoms: _301  and  _304
REMARK  127  A    between atoms: _304  and  _305
REMARK  128  A    between atoms: _308  and  _310
REMARK  129  A    between atoms: _310  and  _311
REMARK  130  A    between atoms: _310  and  _313
REMARK  131  A    between atoms: _313  and  _314
REMARK  132  A    between atoms: _317  and  _319
REMARK  133  A    between atoms: _319  and  _320
REMARK  134  A    between atoms: _322  and  _324
REMARK  135  A    between atoms: _324  and  _325
REMARK  136  A    between atoms: _328  and  _330
REMARK  137  A    between atoms: _330  and  _331
REMARK  138  A    between atoms: _330  and  _333
REMARK  139  A    between atoms: _333  and  _334
REMARK  140  A    between atoms: _337  and  _339
REMARK  141  A    between atoms: _339  and  _340
REMARK  142  A    between atoms: _339  and  _342
REMARK  143  A    between atoms: _342  and  _343
REMARK  144  A    between atoms: _346  and  _348
REMARK  145  A    between atoms: _348  and  _349
REMARK  146  A    between atoms: _348  and  _351
REMARK  147  A    between atoms: _351  and  _352
REMARK  148  A    between atoms: _355  and  _357
REMARK  149  A    between atoms: _357  and  _358
REMARK  150  A    between atoms: _357  and  _360
REMARK  151  A    between atoms: _363  and  _365
REMARK  152  A    between atoms: _365  and  _366
REMARK  153  A    between atoms: _365  and  _368
REMARK  154  A    between atoms: _368  and  _369
REMARK  155  A    between atoms: _369  and  _370
REMARK  156  A    between atoms: _370  and  _371
REMARK  157  A    between atoms: _371  and  _372
REMARK  158  A    between atoms: _376  and  _378
REMARK  159  A    between atoms: _378  and  _379
REMARK  160  A    between atoms: _378  and  _381
REMARK  161  A    between atoms: _381  and  _382
REMARK  162  A    between atoms: _382  and  _383
REMARK  163  A    between atoms: _385  and  _387
REMARK  164  A    between atoms: _387  and  _388
REMARK  165  A    between atoms: _387  and  _390
REMARK  166  A    between atoms: _390  and  _391
REMARK  167  A    between atoms: _394  and  _396
REMARK  168  A    between atoms: _396  and  _397
REMARK  169  A    between atoms: _399  and  _401
REMARK  170  A    between atoms: _401  and  _402
REMARK  171  A    between atoms: _404  and  _406
REMARK  172  A    between atoms: _406  and  _407
REMARK  173  A    between atoms: _406  and  _409
REMARK  174  A    between atoms: _409  and  _410
REMARK  175  A    between atoms: _413  and  _415
REMARK  176  A    between atoms: _415  and  _416
REMARK  177  A    between atoms: _418  and  _420
REMARK  178  A    between atoms: _420  and  _421
REMARK  179  A    between atoms: _423  and  _425
REMARK  180  A    between atoms: _425  and  _426
REMARK  181  A    between atoms: _425  and  _428
REMARK  182  A    between atoms: _428  and  _429
REMARK  183  A    between atoms: _432  and  _434
REMARK  184  A    between atoms: _434  and  _435
REMARK  185  A    between atoms: _434  and  _437
REMARK  186  A    between atoms: _440  and  _442
REMARK  187  A    between atoms: _442  and  _443
REMARK  188  A    between atoms: _442  and  _445
REMARK  189  A    between atoms: _445  and  _446
REMARK  190  A    between atoms: _449  and  _451
REMARK  191  A    between atoms: _451  and  _452
REMARK  192  A    between atoms: _451  and  _454
REMARK  193  A    between atoms: _454  and  _455
REMARK  194  A    between atoms: _459  and  _460
REMARK  195  A    between atoms: _465  and  _467
REMARK  196  A    between atoms: _467  and  _468
REMARK  197  A    between atoms: _467  and  _470
REMARK  198  A    between atoms: _473  and  _475
REMARK  199  A    between atoms: _475  and  _476
REMARK  200  A    between atoms: _475  and  _478
REMARK  201  A    between atoms: _478  and  _479
REMARK  202  A    between atoms: _484  and  _486
REMARK  203  A    between atoms: _486  and  _487
REMARK  204  A    between atoms: _486  and  _489
REMARK  205  A    between atoms: _489  and  _490
REMARK  206  A    between atoms: _493  and  _495
REMARK  207  A    between atoms: _495  and  _496
REMARK  208  A    between atoms: _495  and  _498
REMARK  209  A    between atoms: _498  and  _499
REMARK  210  A    between atoms: _502  and  _504
REMARK  211  A    between atoms: _504  and  _505
REMARK  212  A    between atoms: _507  and  _509
REMARK  213  A    between atoms: _509  and  _510
REMARK  214  A    between atoms: _509  and  _512
REMARK  215  A    between atoms: _512  and  _513
REMARK  216  A    between atoms: _513  and  _514
REMARK  217  A    between atoms: _514  and  _515
REMARK  218  A    between atoms: _524  and  _526
REMARK  219  A    between atoms: _526  and  _527
REMARK  220  A    between atoms: _526  and  _529
REMARK  221  A    between atoms: _529  and  _530
REMARK                            x       y       z     vdW  Elec       q    Type
REMARK                         _______ _______ _______ _____ _____    ______ ____
ROOT
ATOM      1  O   HOH     1      15.731 -19.445  11.839  0.00  0.00    +0.000 OA
ENDROOT
TORSDOF 0
REMARK  Name = ../refined-set-2016/4hla/4hla_pocket.pdb
REMARK  221 active torsions:
REMARK  status: ('A' for Active; 'I' for Inactive)
REMARK    1  A    between atoms: _1  and  _3
REMARK    2  A    between atoms: _3  and  _4
REMARK    3  A    between atoms: _3  and  _6
REMARK    4  A    between atoms: _6  and  _7
REMARK    5  A    between atoms: _7  and  _8
REMARK    6  A    between atoms: _8  and  _9
REMARK    7  A    between atoms: _18  and  _20
REMARK    8  A    between atoms: _20  and  _21
REMARK    9  A    between atoms: _20  and  _23
REMARK   10  A    between atoms: _23  and  _24
REMARK   11  A    between atoms: _27  and  _29
REMARK   12  A    between atoms: _29  and  _30
REMARK   13  A    between atoms: _29  and  _32
REMARK   14  A    between atoms: _32  and  _33
REMARK   15  A    between atoms: _36  and  _38
REMARK   16  A    between atoms: _38  and  _39
REMARK   17  A    between atoms: _38  and  _41
REMARK   18  A    between atoms: _41  and  _42
REMARK   19  A    between atoms: _45  and  _47
REMARK   20  A    between atoms: _47  and  _48
REMARK   21  A    between atoms: _47  and  _50
REMARK   22  A    between atoms: _50  and  _51
REMARK   23  A    between atoms: _54  and  _56
REMARK   24  A    between atoms: _56  and  _57
REMARK   25  A    between atoms: _59  and  _61
REMARK   26  A    between atoms: _61  and  _62
REMARK   27  A    between atoms: _65  and  _67
REMARK   28  A    between atoms: _67  and  _68
REMARK   29  A    between atoms: _67  and  _70
REMARK   30  A    between atoms: _70  and  _71
REMARK   31  A    between atoms: _74  and  _76
REMARK   32  A    between atoms: _76  and  _77
REMARK   33  A    between atoms: _76  and  _79
REMARK   34  A    between atoms: _79  and  _80
REMARK   35  A    between atoms: _83  and  _85
REMARK   36  A    between atoms: _85  and  _86
REMARK   37  A    between atoms: _85  and  _88
REMARK   38  A    between atoms: _88  and  _89
REMARK   39  A    between atoms: _92  and  _94
REMARK   40  A    between atoms: _94  and  _95
REMARK   41  A    between atoms: _94  and  _97
REMARK   42  A    between atoms: _100  and  _102
REMARK   43  A    between atoms: _102  and  _103
REMARK   44  A    between atoms: _102  and  _105
REMARK   45  A    between atoms: _105  and  _106
REMARK   46  A    between atoms: _106  and  _107
REMARK   47  A    between atoms: _107  and  _108
REMARK   48  A    between atoms: _108  and  _109
REMARK   49  A    between atoms: _113  and  _115
REMARK   50  A    between atoms: _115  and  _116
REMARK   51  A    between atoms: _115  and  _118
REMARK   52  A    between atoms: _118  and  _119
REMARK   53  A    between atoms: _119  and  _120
REMARK   54  A    between atoms: _122  and  _124
REMARK   55  A    between atoms: _124  and  _125
REMARK   56  A    between atoms: _124  and  _127
REMARK   57  A    between atoms: _127  and  _128
REMARK   58  A    between atoms: _131  and  _133
REMARK   59  A    between atoms: _133  and  _134
REMARK   60  A    between atoms: _136  and  _138
REMARK   61  A    between atoms: _138  and  _139
REMARK   62  A    between atoms: _141  and  _143
REMARK   63  A    between atoms: _143  and  _144
REMARK   64  A    between atoms: _143  and  _146
REMARK   65  A    between atoms: _146  and  _147
REMARK   66  A    between atoms: _150  and  _152
REMARK   67  A    between atoms: _152  and  _153
REMARK   68  A    between atoms: _155  and  _157
REMARK   69  A    between atoms: _157  and  _158
REMARK   70  A    between atoms: _160  and  _162
REMARK   71  A    between atoms: _162  and  _163
REMARK   72  A    between atoms: _162  and  _165
REMARK   73  A    between atoms: _165  and  _166
REMARK   74  A    between atoms: _169  and  _171
REMARK   75  A    between atoms: _171  and  _172
REMARK   76  A    between atoms: _171  and  _174
REMARK   77  A    between atoms: _174  and  _175
REMARK   78  A    between atoms: _178  and  _180
REMARK   79  A    between atoms: _180  and  _181
REMARK   80  A    between atoms: _180  and  _183
REMARK   81  A    between atoms: _183  and  _184
REMARK   82  A    between atoms: _188  and  _189
REMARK   83  A    between atoms: _194  and  _196
REMARK   84  A    between atoms: _196  and  _197
REMARK   85  A    between atoms: _196  and  _199
REMARK   86  A    between atoms: _202  and  _204
REMARK   87  A    between atoms: _204  and  _205
REMARK   88  A    between atoms: _204  and  _207
REMARK   89  A    between atoms: _207  and  _208
REMARK   90  A    between atoms: _213  and  _215
REMARK   91  A    between atoms: _215  and  _216
REMARK   92  A    between atoms: _215  and  _218
REMARK   93  A    between atoms: _218  and  _219
REMARK   94  A    between atoms: _222  and  _224
REMARK   95  A    between atoms: _224  and  _225
REMARK   96  A    between atoms: _224  and  _227
REMARK   97  A    between atoms: _227  and  _228
REMARK   98  A    between atoms: _231  and  _233
REMARK   99  A    between atoms: _233  and  _234
REMARK  100  A    between atoms: _236  and  _238
REMARK  101  A    between atoms: _238  and  _239
REMARK  102  A    between atoms: _238  and  _241
REMARK  103  A    between atoms: _241  and  _242
REMARK  104  A    between atoms: _242  and  _243
REMARK  105  A    between atoms: _243  and  _244
REMARK  106  A    between atoms: _253  and  _255
REMARK  107  A    between atoms: _255  and  _256
REMARK  108  A    between atoms: _255  and  _258
REMARK  109  A    between atoms: _258  and  _259
REMARK  110  A    between atoms: _264  and  _266
REMARK  111  A    between atoms: _266  and  _267
REMARK  112  A    between atoms: _266  and  _269
REMARK  113  A    between atoms: _269  and  _270
REMARK  114  A    between atoms: _270  and  _271
REMARK  115  A    between atoms: _271  and  _272
REMARK  116  A    between atoms: _281  and  _283
REMARK  117  A    between atoms: _283  and  _284
REMARK  118  A    between atoms: _283  and  _286
REMARK  119  A    between atoms: _286  and  _287
REMARK  120  A    between atoms: _290  and  _292
REMARK  121  A    between atoms: _292  and  _293
REMARK  122  A    between atoms: _292  and  _295
REMARK  123  A    between atoms: _295  and  _296
REMARK  124  A    between atoms: _299  and  _301
REMARK  125  A    between atoms: _301  and  _302
REMARK  126  A    between atoms: _301  and  _304
REMARK  127  A    between atoms: _304  and  _305
REMARK  128  A    between atoms: _308  and  _310
REMARK  129  A    between atoms: _310  and  _311
REMARK  130  A    between atoms: _310  and  _313
REMARK  131  A    between atoms: _313  and  _314
REMARK  132  A    between atoms: _317  and  _319
REMARK  133  A    between atoms: _319  and  _320
REMARK  134  A    between atoms: _322  and  _324
REMARK  135  A    between atoms: _324  and  _325
REMARK  136  A    between atoms: _328  and  _330
REMARK  137  A    between atoms: _330  and  _331
REMARK  138  A    between atoms: _330  and  _333
REMARK  139  A    between atoms: _333  and  _334
REMARK  140  A    between atoms: _337  and  _339
REMARK  141  A    between atoms: _339  and  _340
REMARK  142  A    between atoms: _339  and  _342
REMARK  143  A    between atoms: _342  and  _343
REMARK  144  A    between atoms: _346  and  _348
REMARK  145  A    between atoms: _348  and  _349
REMARK  146  A    between atoms: _348  and  _351
REMARK  147  A    between atoms: _351  and  _352
REMARK  148  A    between atoms: _355  and  _357
REMARK  149  A    between atoms: _357  and  _358
REMARK  150  A    between atoms: _357  and  _360
REMARK  151  A    between atoms: _363  and  _365
REMARK  152  A    between atoms: _365  and  _366
REMARK  153  A    between atoms: _365  and  _368
REMARK  154  A    between atoms: _368  and  _369
REMARK  155  A    between atoms: _369  and  _370
REMARK  156  A    between atoms: _370  and  _371
REMARK  157  A    between atoms: _371  and  _372
REMARK  158  A    between atoms: _376  and  _378
REMARK  159  A    between atoms: _378  and  _379
REMARK  160  A    between atoms: _378  and  _381
REMARK  161  A    between atoms: _381  and  _382
REMARK  162  A    between atoms: _382  and  _383
REMARK  163  A    between atoms: _385  and  _387
REMARK  164  A    between atoms: _387  and  _388
REMARK  165  A    between atoms: _387  and  _390
REMARK  166  A    between atoms: _390  and  _391
REMARK  167  A    between atoms: _394  and  _396
REMARK  168  A    between atoms: _396  and  _397
REMARK  169  A    between atoms: _399  and  _401
REMARK  170  A    between atoms: _401  and  _402
REMARK  171  A    between atoms: _404  and  _406
REMARK  172  A    between atoms: _406  and  _407
REMARK  173  A    between atoms: _406  and  _409
REMARK  174  A    between atoms: _409  and  _410
REMARK  175  A    between atoms: _413  and  _415
REMARK  176  A    between atoms: _415  and  _416
REMARK  177  A    between atoms: _418  and  _420
REMARK  178  A    between atoms: _420  and  _421
REMARK  179  A    between atoms: _423  and  _425
REMARK  180  A    between atoms: _425  and  _426
REMARK  181  A    between atoms: _425  and  _428
REMARK  182  A    between atoms: _428  and  _429
REMARK  183  A    between atoms: _432  and  _434
REMARK  184  A    between atoms: _434  and  _435
REMARK  185  A    between atoms: _434  and  _437
REMARK  186  A    between atoms: _440  and  _442
REMARK  187  A    between atoms: _442  and  _443
REMARK  188  A    between atoms: _442  and  _445
REMARK  189  A    between atoms: _445  and  _446
REMARK  190  A    between atoms: _449  and  _451
REMARK  191  A    between atoms: _451  and  _452
REMARK  192  A    between atoms: _451  and  _454
REMARK  193  A    between atoms: _454  and  _455
REMARK  194  A    between atoms: _459  and  _460
REMARK  195  A    between atoms: _465  and  _467
REMARK  196  A    between atoms: _467  and  _468
REMARK  197  A    between atoms: _467  and  _470
REMARK  198  A    between atoms: _473  and  _475
REMARK  199  A    between atoms: _475  and  _476
REMARK  200  A    between atoms: _475  and  _478
REMARK  201  A    between atoms: _478  and  _479
REMARK  202  A    between atoms: _484  and  _486
REMARK  203  A    between atoms: _486  and  _487
REMARK  204  A    between atoms: _486  and  _489
REMARK  205  A    between atoms: _489  and  _490
REMARK  206  A    between atoms: _493  and  _495
REMARK  207  A    between atoms: _495  and  _496
REMARK  208  A    between atoms: _495  and  _498
REMARK  209  A    between atoms: _498  and  _499
REMARK  210  A    between atoms: _502  and  _504
REMARK  211  A    between atoms: _504  and  _505
REMARK  212  A    between atoms: _507  and  _509
REMARK  213  A    between atoms: _509  and  _510
REMARK  214  A    between atoms: _509  and  _512
REMARK  215  A    between atoms: _512  and  _513
REMARK  216  A    between atoms: _513  and  _514
REMARK  217  A    between atoms: _514  and  _515
REMARK  218  A    between atoms: _524  and  _526
REMARK  219  A    between atoms: _526  and  _527
REMARK  220  A    between atoms: _526  and  _529
REMARK  221  A    between atoms: _529  and  _530
REMARK                            x       y       z     vdW  Elec       q    Type
REMARK                         _______ _______ _______ _____ _____    ______ ____
ROOT
ATOM      1  O   HOH     1      10.336  -6.386   2.446  0.00  0.00    +0.000 OA
ENDROOT
TORSDOF 0
REMARK  Name = ../refined-set-2016/4hla/4hla_pocket.pdb
REMARK  221 active torsions:
REMARK  status: ('A' for Active; 'I' for Inactive)
REMARK    1  A    between atoms: _1  and  _3
REMARK    2  A    between atoms: _3  and  _4
REMARK    3  A    between atoms: _3  and  _6
REMARK    4  A    between atoms: _6  and  _7
REMARK    5  A    between atoms: _7  and  _8
REMARK    6  A    between atoms: _8  and  _9
REMARK    7  A    between atoms: _18  and  _20
REMARK    8  A    between atoms: _20  and  _21
REMARK    9  A    between atoms: _20  and  _23
REMARK   10  A    between atoms: _23  and  _24
REMARK   11  A    between atoms: _27  and  _29
REMARK   12  A    between atoms: _29  and  _30
REMARK   13  A    between atoms: _29  and  _32
REMARK   14  A    between atoms: _32  and  _33
REMARK   15  A    between atoms: _36  and  _38
REMARK   16  A    between atoms: _38  and  _39
REMARK   17  A    between atoms: _38  and  _41
REMARK   18  A    between atoms: _41  and  _42
REMARK   19  A    between atoms: _45  and  _47
REMARK   20  A    between atoms: _47  and  _48
REMARK   21  A    between atoms: _47  and  _50
REMARK   22  A    between atoms: _50  and  _51
REMARK   23  A    between atoms: _54  and  _56
REMARK   24  A    between atoms: _56  and  _57
REMARK   25  A    between atoms: _59  and  _61
REMARK   26  A    between atoms: _61  and  _62
REMARK   27  A    between atoms: _65  and  _67
REMARK   28  A    between atoms: _67  and  _68
REMARK   29  A    between atoms: _67  and  _70
REMARK   30  A    between atoms: _70  and  _71
REMARK   31  A    between atoms: _74  and  _76
REMARK   32  A    between atoms: _76  and  _77
REMARK   33  A    between atoms: _76  and  _79
REMARK   34  A    between atoms: _79  and  _80
REMARK   35  A    between atoms: _83  and  _85
REMARK   36  A    between atoms: _85  and  _86
REMARK   37  A    between atoms: _85  and  _88
REMARK   38  A    between atoms: _88  and  _89
REMARK   39  A    between atoms: _92  and  _94
REMARK   40  A    between atoms: _94  and  _95
REMARK   41  A    between atoms: _94  and  _97
REMARK   42  A    between atoms: _100  and  _102
REMARK   43  A    between atoms: _102  and  _103
REMARK   44  A    between atoms: _102  and  _105
REMARK   45  A    between atoms: _105  and  _106
REMARK   46  A    between atoms: _106  and  _107
REMARK   47  A    between atoms: _107  and  _108
REMARK   48  A    between atoms: _108  and  _109
REMARK   49  A    between atoms: _113  and  _115
REMARK   50  A    between atoms: _115  and  _116
REMARK   51  A    between atoms: _115  and  _118
REMARK   52  A    between atoms: _118  and  _119
REMARK   53  A    between atoms: _119  and  _120
REMARK   54  A    between atoms: _122  and  _124
REMARK   55  A    between atoms: _124  and  _125
REMARK   56  A    between atoms: _124  and  _127
REMARK   57  A    between atoms: _127  and  _128
REMARK   58  A    between atoms: _131  and  _133
REMARK   59  A    between atoms: _133  and  _134
REMARK   60  A    between atoms: _136  and  _138
REMARK   61  A    between atoms: _138  and  _139
REMARK   62  A    between atoms: _141  and  _143
REMARK   63  A    between atoms: _143  and  _144
REMARK   64  A    between atoms: _143  and  _146
REMARK   65  A    between atoms: _146  and  _147
REMARK   66  A    between atoms: _150  and  _152
REMARK   67  A    between atoms: _152  and  _153
REMARK   68  A    between atoms: _155  and  _157
REMARK   69  A    between atoms: _157  and  _158
REMARK   70  A    between atoms: _160  and  _162
REMARK   71  A    between atoms: _162  and  _163
REMARK   72  A    between atoms: _162  and  _165
REMARK   73  A    between atoms: _165  and  _166
REMARK   74  A    between atoms: _169  and  _171
REMARK   75  A    between atoms: _171  and  _172
REMARK   76  A    between atoms: _171  and  _174
REMARK   77  A    between atoms: _174  and  _175
REMARK   78  A    between atoms: _178  and  _180
REMARK   79  A    between atoms: _180  and  _181
REMARK   80  A    between atoms: _180  and  _183
REMARK   81  A    between atoms: _183  and  _184
REMARK   82  A    between atoms: _188  and  _189
REMARK   83  A    between atoms: _194  and  _196
REMARK   84  A    between atoms: _196  and  _197
REMARK   85  A    between atoms: _196  and  _199
REMARK   86  A    between atoms: _202  and  _204
REMARK   87  A    between atoms: _204  and  _205
REMARK   88  A    between atoms: _204  and  _207
REMARK   89  A    between atoms: _207  and  _208
REMARK   90  A    between atoms: _213  and  _215
REMARK   91  A    between atoms: _215  and  _216
REMARK   92  A    between atoms: _215  and  _218
REMARK   93  A    between atoms: _218  and  _219
REMARK   94  A    between atoms: _222  and  _224
REMARK   95  A    between atoms: _224  and  _225
REMARK   96  A    between atoms: _224  and  _227
REMARK   97  A    between atoms: _227  and  _228
REMARK   98  A    between atoms: _231  and  _233
REMARK   99  A    between atoms: _233  and  _234
REMARK  100  A    between atoms: _236  and  _238
REMARK  101  A    between atoms: _238  and  _239
REMARK  102  A    between atoms: _238  and  _241
REMARK  103  A    between atoms: _241  and  _242
REMARK  104  A    between atoms: _242  and  _243
REMARK  105  A    between atoms: _243  and  _244
REMARK  106  A    between atoms: _253  and  _255
REMARK  107  A    between atoms: _255  and  _256
REMARK  108  A    between atoms: _255  and  _258
REMARK  109  A    between atoms: _258  and  _259
REMARK  110  A    between atoms: _264  and  _266
REMARK  111  A    between atoms: _266  and  _267
REMARK  112  A    between atoms: _266  and  _269
REMARK  113  A    between atoms: _269  and  _270
REMARK  114  A    between atoms: _270  and  _271
REMARK  115  A    between atoms: _271  and  _272
REMARK  116  A    between atoms: _281  and  _283
REMARK  117  A    between atoms: _283  and  _284
REMARK  118  A    between atoms: _283  and  _286
REMARK  119  A    between atoms: _286  and  _287
REMARK  120  A    between atoms: _290  and  _292
REMARK  121  A    between atoms: _292  and  _293
REMARK  122  A    between atoms: _292  and  _295
REMARK  123  A    between atoms: _295  and  _296
REMARK  124  A    between atoms: _299  and  _301
REMARK  125  A    between atoms: _301  and  _302
REMARK  126  A    between atoms: _301  and  _304
REMARK  127  A    between atoms: _304  and  _305
REMARK  128  A    between atoms: _308  and  _310
REMARK  129  A    between atoms: _310  and  _311
REMARK  130  A    between atoms: _310  and  _313
REMARK  131  A    between atoms: _313  and  _314
REMARK  132  A    between atoms: _317  and  _319
REMARK  133  A    between atoms: _319  and  _320
REMARK  134  A    between atoms: _322  and  _324
REMARK  135  A    between atoms: _324  and  _325
REMARK  136  A    between atoms: _328  and  _330
REMARK  137  A    between atoms: _330  and  _331
REMARK  138  A    between atoms: _330  and  _333
REMARK  139  A    between atoms: _333  and  _334
REMARK  140  A    between atoms: _337  and  _339
REMARK  141  A    between atoms: _339  and  _340
REMARK  142  A    between atoms: _339  and  _342
REMARK  143  A    between atoms: _342  and  _343
REMARK  144  A    between atoms: _346  and  _348
REMARK  145  A    between atoms: _348  and  _349
REMARK  146  A    between atoms: _348  and  _351
REMARK  147  A    between atoms: _351  and  _352
REMARK  148  A    between atoms: _355  and  _357
REMARK  149  A    between atoms: _357  and  _358
REMARK  150  A    between atoms: _357  and  _360
REMARK  151  A    between atoms: _363  and  _365
REMARK  152  A    between atoms: _365  and  _366
REMARK  153  A    between atoms: _365  and  _368
REMARK  154  A    between atoms: _368  and  _369
REMARK  155  A    between atoms: _369  and  _370
REMARK  156  A    between atoms: _370  and  _371
REMARK  157  A    between atoms: _371  and  _372
REMARK  158  A    between atoms: _376  and  _378
REMARK  159  A    between atoms: _378  and  _379
REMARK  160  A    between atoms: _378  and  _381
REMARK  161  A    between atoms: _381  and  _382
REMARK  162  A    between atoms: _382  and  _383
REMARK  163  A    between atoms: _385  and  _387
REMARK  164  A    between atoms: _387  and  _388
REMARK  165  A    between atoms: _387  and  _390
REMARK  166  A    between atoms: _390  and  _391
REMARK  167  A    between atoms: _394  and  _396
REMARK  168  A    between atoms: _396  and  _397
REMARK  169  A    between atoms: _399  and  _401
REMARK  170  A    between atoms: _401  and  _402
REMARK  171  A    between atoms: _404  and  _406
REMARK  172  A    between atoms: _406  and  _407
REMARK  173  A    between atoms: _406  and  _409
REMARK  174  A    between atoms: _409  and  _410
REMARK  175  A    between atoms: _413  and  _415
REMARK  176  A    between atoms: _415  and  _416
REMARK  177  A    between atoms: _418  and  _420
REMARK  178  A    between atoms: _420  and  _421
REMARK  179  A    between atoms: _423  and  _425
REMARK  180  A    between atoms: _425  and  _426
REMARK  181  A    between atoms: _425  and  _428
REMARK  182  A    between atoms: _428  and  _429
REMARK  183  A    between atoms: _432  and  _434
REMARK  184  A    between atoms: _434  and  _435
REMARK  185  A    between atoms: _434  and  _437
REMARK  186  A    between atoms: _440  and  _442
REMARK  187  A    between atoms: _442  and  _443
REMARK  188  A    between atoms: _442  and  _445
REMARK  189  A    between atoms: _445  and  _446
REMARK  190  A    between atoms: _449  and  _451
REMARK  191  A    between atoms: _451  and  _452
REMARK  192  A    between atoms: _451  and  _454
REMARK  193  A    between atoms: _454  and  _455
REMARK  194  A    between atoms: _459  and  _460
REMARK  195  A    between atoms: _465  and  _467
REMARK  196  A    between atoms: _467  and  _468
REMARK  197  A    between atoms: _467  and  _470
REMARK  198  A    between atoms: _473  and  _475
REMARK  199  A    between atoms: _475  and  _476
REMARK  200  A    between atoms: _475  and  _478
REMARK  201  A    between atoms: _478  and  _479
REMARK  202  A    between atoms: _484  and  _486
REMARK  203  A    between atoms: _486  and  _487
REMARK  204  A    between atoms: _486  and  _489
REMARK  205  A    between atoms: _489  and  _490
REMARK  206  A    between atoms: _493  and  _495
REMARK  207  A    between atoms: _495  and  _496
REMARK  208  A    between atoms: _495  and  _498
REMARK  209  A    between atoms: _498  and  _499
REMARK  210  A    between atoms: _502  and  _504
REMARK  211  A    between atoms: _504  and  _505
REMARK  212  A    between atoms: _507  and  _509
REMARK  213  A    between atoms: _509  and  _510
REMARK  214  A    between atoms: _509  and  _512
REMARK  215  A    between atoms: _512  and  _513
REMARK  216  A    between atoms: _513  and  _514
REMARK  217  A    between atoms: _514  and  _515
REMARK  218  A    between atoms: _524  and  _526
REMARK  219  A    between atoms: _526  and  _527
REMARK  220  A    between atoms: _526  and  _529
REMARK  221  A    between atoms: _529  and  _530
REMARK                            x       y       z     vdW  Elec       q    Type
REMARK                         _______ _______ _______ _____ _____    ______ ____
ROOT
ATOM      1  O   HOH     1      12.312  -7.310   4.097  0.00  0.00    +0.000 OA
ENDROOT
TORSDOF 0
REMARK  Name = ../refined-set-2016/4hla/4hla_pocket.pdb
REMARK  221 active torsions:
REMARK  status: ('A' for Active; 'I' for Inactive)
REMARK    1  A    between atoms: _1  and  _3
REMARK    2  A    between atoms: _3  and  _4
REMARK    3  A    between atoms: _3  and  _6
REMARK    4  A    between atoms: _6  and  _7
REMARK    5  A    between atoms: _7  and  _8
REMARK    6  A    between atoms: _8  and  _9
REMARK    7  A    between atoms: _18  and  _20
REMARK    8  A    between atoms: _20  and  _21
REMARK    9  A    between atoms: _20  and  _23
REMARK   10  A    between atoms: _23  and  _24
REMARK   11  A    between atoms: _27  and  _29
REMARK   12  A    between atoms: _29  and  _30
REMARK   13  A    between atoms: _29  and  _32
REMARK   14  A    between atoms: _32  and  _33
REMARK   15  A    between atoms: _36  and  _38
REMARK   16  A    between atoms: _38  and  _39
REMARK   17  A    between atoms: _38  and  _41
REMARK   18  A    between atoms: _41  and  _42
REMARK   19  A    between atoms: _45  and  _47
REMARK   20  A    between atoms: _47  and  _48
REMARK   21  A    between atoms: _47  and  _50
REMARK   22  A    between atoms: _50  and  _51
REMARK   23  A    between atoms: _54  and  _56
REMARK   24  A    between atoms: _56  and  _57
REMARK   25  A    between atoms: _59  and  _61
REMARK   26  A    between atoms: _61  and  _62
REMARK   27  A    between atoms: _65  and  _67
REMARK   28  A    between atoms: _67  and  _68
REMARK   29  A    between atoms: _67  and  _70
REMARK   30  A    between atoms: _70  and  _71
REMARK   31  A    between atoms: _74  and  _76
REMARK   32  A    between atoms: _76  and  _77
REMARK   33  A    between atoms: _76  and  _79
REMARK   34  A    between atoms: _79  and  _80
REMARK   35  A    between atoms: _83  and  _85
REMARK   36  A    between atoms: _85  and  _86
REMARK   37  A    between atoms: _85  and  _88
REMARK   38  A    between atoms: _88  and  _89
REMARK   39  A    between atoms: _92  and  _94
REMARK   40  A    between atoms: _94  and  _95
REMARK   41  A    between atoms: _94  and  _97
REMARK   42  A    between atoms: _100  and  _102
REMARK   43  A    between atoms: _102  and  _103
REMARK   44  A    between atoms: _102  and  _105
REMARK   45  A    between atoms: _105  and  _106
REMARK   46  A    between atoms: _106  and  _107
REMARK   47  A    between atoms: _107  and  _108
REMARK   48  A    between atoms: _108  and  _109
REMARK   49  A    between atoms: _113  and  _115
REMARK   50  A    between atoms: _115  and  _116
REMARK   51  A    between atoms: _115  and  _118
REMARK   52  A    between atoms: _118  and  _119
REMARK   53  A    between atoms: _119  and  _120
REMARK   54  A    between atoms: _122  and  _124
REMARK   55  A    between atoms: _124  and  _125
REMARK   56  A    between atoms: _124  and  _127
REMARK   57  A    between atoms: _127  and  _128
REMARK   58  A    between atoms: _131  and  _133
REMARK   59  A    between atoms: _133  and  _134
REMARK   60  A    between atoms: _136  and  _138
REMARK   61  A    between atoms: _138  and  _139
REMARK   62  A    between atoms: _141  and  _143
REMARK   63  A    between atoms: _143  and  _144
REMARK   64  A    between atoms: _143  and  _146
REMARK   65  A    between atoms: _146  and  _147
REMARK   66  A    between atoms: _150  and  _152
REMARK   67  A    between atoms: _152  and  _153
REMARK   68  A    between atoms: _155  and  _157
REMARK   69  A    between atoms: _157  and  _158
REMARK   70  A    between atoms: _160  and  _162
REMARK   71  A    between atoms: _162  and  _163
REMARK   72  A    between atoms: _162  and  _165
REMARK   73  A    between atoms: _165  and  _166
REMARK   74  A    between atoms: _169  and  _171
REMARK   75  A    between atoms: _171  and  _172
REMARK   76  A    between atoms: _171  and  _174
REMARK   77  A    between atoms: _174  and  _175
REMARK   78  A    between atoms: _178  and  _180
REMARK   79  A    between atoms: _180  and  _181
REMARK   80  A    between atoms: _180  and  _183
REMARK   81  A    between atoms: _183  and  _184
REMARK   82  A    between atoms: _188  and  _189
REMARK   83  A    between atoms: _194  and  _196
REMARK   84  A    between atoms: _196  and  _197
REMARK   85  A    between atoms: _196  and  _199
REMARK   86  A    between atoms: _202  and  _204
REMARK   87  A    between atoms: _204  and  _205
REMARK   88  A    between atoms: _204  and  _207
REMARK   89  A    between atoms: _207  and  _208
REMARK   90  A    between atoms: _213  and  _215
REMARK   91  A    between atoms: _215  and  _216
REMARK   92  A    between atoms: _215  and  _218
REMARK   93  A    between atoms: _218  and  _219
REMARK   94  A    between atoms: _222  and  _224
REMARK   95  A    between atoms: _224  and  _225
REMARK   96  A    between atoms: _224  and  _227
REMARK   97  A    between atoms: _227  and  _228
REMARK   98  A    between atoms: _231  and  _233
REMARK   99  A    between atoms: _233  and  _234
REMARK  100  A    between atoms: _236  and  _238
REMARK  101  A    between atoms: _238  and  _239
REMARK  102  A    between atoms: _238  and  _241
REMARK  103  A    between atoms: _241  and  _242
REMARK  104  A    between atoms: _242  and  _243
REMARK  105  A    between atoms: _243  and  _244
REMARK  106  A    between atoms: _253  and  _255
REMARK  107  A    between atoms: _255  and  _256
REMARK  108  A    between atoms: _255  and  _258
REMARK  109  A    between atoms: _258  and  _259
REMARK  110  A    between atoms: _264  and  _266
REMARK  111  A    between atoms: _266  and  _267
REMARK  112  A    between atoms: _266  and  _269
REMARK  113  A    between atoms: _269  and  _270
REMARK  114  A    between atoms: _270  and  _271
REMARK  115  A    between atoms: _271  and  _272
REMARK  116  A    between atoms: _281  and  _283
REMARK  117  A    between atoms: _283  and  _284
REMARK  118  A    between atoms: _283  and  _286
REMARK  119  A    between atoms: _286  and  _287
REMARK  120  A    between atoms: _290  and  _292
REMARK  121  A    between atoms: _292  and  _293
REMARK  122  A    between atoms: _292  and  _295
REMARK  123  A    between atoms: _295  and  _296
REMARK  124  A    between atoms: _299  and  _301
REMARK  125  A    between atoms: _301  and  _302
REMARK  126  A    between atoms: _301  and  _304
REMARK  127  A    between atoms: _304  and  _305
REMARK  128  A    between atoms: _308  and  _310
REMARK  129  A    between atoms: _310  and  _311
REMARK  130  A    between atoms: _310  and  _313
REMARK  131  A    between atoms: _313  and  _314
REMARK  132  A    between atoms: _317  and  _319
REMARK  133  A    between atoms: _319  and  _320
REMARK  134  A    between atoms: _322  and  _324
REMARK  135  A    between atoms: _324  and  _325
REMARK  136  A    between atoms: _328  and  _330
REMARK  137  A    between atoms: _330  and  _331
REMARK  138  A    between atoms: _330  and  _333
REMARK  139  A    between atoms: _333  and  _334
REMARK  140  A    between atoms: _337  and  _339
REMARK  141  A    between atoms: _339  and  _340
REMARK  142  A    between atoms: _339  and  _342
REMARK  143  A    between atoms: _342  and  _343
REMARK  144  A    between atoms: _346  and  _348
REMARK  145  A    between atoms: _348  and  _349
REMARK  146  A    between atoms: _348  and  _351
REMARK  147  A    between atoms: _351  and  _352
REMARK  148  A    between atoms: _355  and  _357
REMARK  149  A    between atoms: _357  and  _358
REMARK  150  A    between atoms: _357  and  _360
REMARK  151  A    between atoms: _363  and  _365
REMARK  152  A    between atoms: _365  and  _366
REMARK  153  A    between atoms: _365  and  _368
REMARK  154  A    between atoms: _368  and  _369
REMARK  155  A    between atoms: _369  and  _370
REMARK  156  A    between atoms: _370  and  _371
REMARK  157  A    between atoms: _371  and  _372
REMARK  158  A    between atoms: _376  and  _378
REMARK  159  A    between atoms: _378  and  _379
REMARK  160  A    between atoms: _378  and  _381
REMARK  161  A    between atoms: _381  and  _382
REMARK  162  A    between atoms: _382  and  _383
REMARK  163  A    between atoms: _385  and  _387
REMARK  164  A    between atoms: _387  and  _388
REMARK  165  A    between atoms: _387  and  _390
REMARK  166  A    between atoms: _390  and  _391
REMARK  167  A    between atoms: _394  and  _396
REMARK  168  A    between atoms: _396  and  _397
REMARK  169  A    between atoms: _399  and  _401
REMARK  170  A    between atoms: _401  and  _402
REMARK  171  A    between atoms: _404  and  _406
REMARK  172  A    between atoms: _406  and  _407
REMARK  173  A    between atoms: _406  and  _409
REMARK  174  A    between atoms: _409  and  _410
REMARK  175  A    between atoms: _413  and  _415
REMARK  176  A    between atoms: _415  and  _416
REMARK  177  A    between atoms: _418  and  _420
REMARK  178  A    between atoms: _420  and  _421
REMARK  179  A    between atoms: _423  and  _425
REMARK  180  A    between atoms: _425  and  _426
REMARK  181  A    between atoms: _425  and  _428
REMARK  182  A    between atoms: _428  and  _429
REMARK  183  A    between atoms: _432  and  _434
REMARK  184  A    between atoms: _434  and  _435
REMARK  185  A    between atoms: _434  and  _437
REMARK  186  A    between atoms: _440  and  _442
REMARK  187  A    between atoms: _442  and  _443
REMARK  188  A    between atoms: _442  and  _445
REMARK  189  A    between atoms: _445  and  _446
REMARK  190  A    between atoms: _449  and  _451
REMARK  191  A    between atoms: _451  and  _452
REMARK  192  A    between atoms: _451  and  _454
REMARK  193  A    between atoms: _454  and  _455
REMARK  194  A    between atoms: _459  and  _460
REMARK  195  A    between atoms: _465  and  _467
REMARK  196  A    between atoms: _467  and  _468
REMARK  197  A    between atoms: _467  and  _470
REMARK  198  A    between atoms: _473  and  _475
REMARK  199  A    between atoms: _475  and  _476
REMARK  200  A    between atoms: _475  and  _478
REMARK  201  A    between atoms: _478  and  _479
REMARK  202  A    between atoms: _484  and  _486
REMARK  203  A    between atoms: _486  and  _487
REMARK  204  A    between atoms: _486  and  _489
REMARK  205  A    between atoms: _489  and  _490
REMARK  206  A    between atoms: _493  and  _495
REMARK  207  A    between atoms: _495  and  _496
REMARK  208  A    between atoms: _495  and  _498
REMARK  209  A    between atoms: _498  and  _499
REMARK  210  A    between atoms: _502  and  _504
REMARK  211  A    between atoms: _504  and  _505
REMARK  212  A    between atoms: _507  and  _509
REMARK  213  A    between atoms: _509  and  _510
REMARK  214  A    between atoms: _509  and  _512
REMARK  215  A    between atoms: _512  and  _513
REMARK  216  A    between atoms: _513  and  _514
REMARK  217  A    between atoms: _514  and  _515
REMARK  218  A    between atoms: _524  and  _526
REMARK  219  A    between atoms: _526  and  _527
REMARK  220  A    between atoms: _526  and  _529
REMARK  221  A    between atoms: _529  and  _530
REMARK                            x       y       z     vdW  Elec       q    Type
REMARK                         _______ _______ _______ _____ _____    ______ ____
ROOT
ATOM      1  O   HOH     1      10.767 -17.458  14.991  0.00  0.00    +0.000 OA
ENDROOT
TORSDOF 0
REMARK  Name = ../refined-set-2016/4hla/4hla_pocket.pdb
REMARK  221 active torsions:
REMARK  status: ('A' for Active; 'I' for Inactive)
REMARK    1  A    between atoms: _1  and  _3
REMARK    2  A    between atoms: _3  and  _4
REMARK    3  A    between atoms: _3  and  _6
REMARK    4  A    between atoms: _6  and  _7
REMARK    5  A    between atoms: _7  and  _8
REMARK    6  A    between atoms: _8  and  _9
REMARK    7  A    between atoms: _18  and  _20
REMARK    8  A    between atoms: _20  and  _21
REMARK    9  A    between atoms: _20  and  _23
REMARK   10  A    between atoms: _23  and  _24
REMARK   11  A    between atoms: _27  and  _29
REMARK   12  A    between atoms: _29  and  _30
REMARK   13  A    between atoms: _29  and  _32
REMARK   14  A    between atoms: _32  and  _33
REMARK   15  A    between atoms: _36  and  _38
REMARK   16  A    between atoms: _38  and  _39
REMARK   17  A    between atoms: _38  and  _41
REMARK   18  A    between atoms: _41  and  _42
REMARK   19  A    between atoms: _45  and  _47
REMARK   20  A    between atoms: _47  and  _48
REMARK   21  A    between atoms: _47  and  _50
REMARK   22  A    between atoms: _50  and  _51
REMARK   23  A    between atoms: _54  and  _56
REMARK   24  A    between atoms: _56  and  _57
REMARK   25  A    between atoms: _59  and  _61
REMARK   26  A    between atoms: _61  and  _62
REMARK   27  A    between atoms: _65  and  _67
REMARK   28  A    between atoms: _67  and  _68
REMARK   29  A    between atoms: _67  and  _70
REMARK   30  A    between atoms: _70  and  _71
REMARK   31  A    between atoms: _74  and  _76
REMARK   32  A    between atoms: _76  and  _77
REMARK   33  A    between atoms: _76  and  _79
REMARK   34  A    between atoms: _79  and  _80
REMARK   35  A    between atoms: _83  and  _85
REMARK   36  A    between atoms: _85  and  _86
REMARK   37  A    between atoms: _85  and  _88
REMARK   38  A    between atoms: _88  and  _89
REMARK   39  A    between atoms: _92  and  _94
REMARK   40  A    between atoms: _94  and  _95
REMARK   41  A    between atoms: _94  and  _97
REMARK   42  A    between atoms: _100  and  _102
REMARK   43  A    between atoms: _102  and  _103
REMARK   44  A    between atoms: _102  and  _105
REMARK   45  A    between atoms: _105  and  _106
REMARK   46  A    between atoms: _106  and  _107
REMARK   47  A    between atoms: _107  and  _108
REMARK   48  A    between atoms: _108  and  _109
REMARK   49  A    between atoms: _113  and  _115
REMARK   50  A    between atoms: _115  and  _116
REMARK   51  A    between atoms: _115  and  _118
REMARK   52  A    between atoms: _118  and  _119
REMARK   53  A    between atoms: _119  and  _120
REMARK   54  A    between atoms: _122  and  _124
REMARK   55  A    between atoms: _124  and  _125
REMARK   56  A    between atoms: _124  and  _127
REMARK   57  A    between atoms: _127  and  _128
REMARK   58  A    between atoms: _131  and  _133
REMARK   59  A    between atoms: _133  and  _134
REMARK   60  A    between atoms: _136  and  _138
REMARK   61  A    between atoms: _138  and  _139
REMARK   62  A    between atoms: _141  and  _143
REMARK   63  A    between atoms: _143  and  _144
REMARK   64  A    between atoms: _143  and  _146
REMARK   65  A    between atoms: _146  and  _147
REMARK   66  A    between atoms: _150  and  _152
REMARK   67  A    between atoms: _152  and  _153
REMARK   68  A    between atoms: _155  and  _157
REMARK   69  A    between atoms: _157  and  _158
REMARK   70  A    between atoms: _160  and  _162
REMARK   71  A    between atoms: _162  and  _163
REMARK   72  A    between atoms: _162  and  _165
REMARK   73  A    between atoms: _165  and  _166
REMARK   74  A    between atoms: _169  and  _171
REMARK   75  A    between atoms: _171  and  _172
REMARK   76  A    between atoms: _171  and  _174
REMARK   77  A    between atoms: _174  and  _175
REMARK   78  A    between atoms: _178  and  _180
REMARK   79  A    between atoms: _180  and  _181
REMARK   80  A    between atoms: _180  and  _183
REMARK   81  A    between atoms: _183  and  _184
REMARK   82  A    between atoms: _188  and  _189
REMARK   83  A    between atoms: _194  and  _196
REMARK   84  A    between atoms: _196  and  _197
REMARK   85  A    between atoms: _196  and  _199
REMARK   86  A    between atoms: _202  and  _204
REMARK   87  A    between atoms: _204  and  _205
REMARK   88  A    between atoms: _204  and  _207
REMARK   89  A    between atoms: _207  and  _208
REMARK   90  A    between atoms: _213  and  _215
REMARK   91  A    between atoms: _215  and  _216
REMARK   92  A    between atoms: _215  and  _218
REMARK   93  A    between atoms: _218  and  _219
REMARK   94  A    between atoms: _222  and  _224
REMARK   95  A    between atoms: _224  and  _225
REMARK   96  A    between atoms: _224  and  _227
REMARK   97  A    between atoms: _227  and  _228
REMARK   98  A    between atoms: _231  and  _233
REMARK   99  A    between atoms: _233  and  _234
REMARK  100  A    between atoms: _236  and  _238
REMARK  101  A    between atoms: _238  and  _239
REMARK  102  A    between atoms: _238  and  _241
REMARK  103  A    between atoms: _241  and  _242
REMARK  104  A    between atoms: _242  and  _243
REMARK  105  A    between atoms: _243  and  _244
REMARK  106  A    between atoms: _253  and  _255
REMARK  107  A    between atoms: _255  and  _256
REMARK  108  A    between atoms: _255  and  _258
REMARK  109  A    between atoms: _258  and  _259
REMARK  110  A    between atoms: _264  and  _266
REMARK  111  A    between atoms: _266  and  _267
REMARK  112  A    between atoms: _266  and  _269
REMARK  113  A    between atoms: _269  and  _270
REMARK  114  A    between atoms: _270  and  _271
REMARK  115  A    between atoms: _271  and  _272
REMARK  116  A    between atoms: _281  and  _283
REMARK  117  A    between atoms: _283  and  _284
REMARK  118  A    between atoms: _283  and  _286
REMARK  119  A    between atoms: _286  and  _287
REMARK  120  A    between atoms: _290  and  _292
REMARK  121  A    between atoms: _292  and  _293
REMARK  122  A    between atoms: _292  and  _295
REMARK  123  A    between atoms: _295  and  _296
REMARK  124  A    between atoms: _299  and  _301
REMARK  125  A    between atoms: _301  and  _302
REMARK  126  A    between atoms: _301  and  _304
REMARK  127  A    between atoms: _304  and  _305
REMARK  128  A    between atoms: _308  and  _310
REMARK  129  A    between atoms: _310  and  _311
REMARK  130  A    between atoms: _310  and  _313
REMARK  131  A    between atoms: _313  and  _314
REMARK  132  A    between atoms: _317  and  _319
REMARK  133  A    between atoms: _319  and  _320
REMARK  134  A    between atoms: _322  and  _324
REMARK  135  A    between atoms: _324  and  _325
REMARK  136  A    between atoms: _328  and  _330
REMARK  137  A    between atoms: _330  and  _331
REMARK  138  A    between atoms: _330  and  _333
REMARK  139  A    between atoms: _333  and  _334
REMARK  140  A    between atoms: _337  and  _339
REMARK  141  A    between atoms: _339  and  _340
REMARK  142  A    between atoms: _339  and  _342
REMARK  143  A    between atoms: _342  and  _343
REMARK  144  A    between atoms: _346  and  _348
REMARK  145  A    between atoms: _348  and  _349
REMARK  146  A    between atoms: _348  and  _351
REMARK  147  A    between atoms: _351  and  _352
REMARK  148  A    between atoms: _355  and  _357
REMARK  149  A    between atoms: _357  and  _358
REMARK  150  A    between atoms: _357  and  _360
REMARK  151  A    between atoms: _363  and  _365
REMARK  152  A    between atoms: _365  and  _366
REMARK  153  A    between atoms: _365  and  _368
REMARK  154  A    between atoms: _368  and  _369
REMARK  155  A    between atoms: _369  and  _370
REMARK  156  A    between atoms: _370  and  _371
REMARK  157  A    between atoms: _371  and  _372
REMARK  158  A    between atoms: _376  and  _378
REMARK  159  A    between atoms: _378  and  _379
REMARK  160  A    between atoms: _378  and  _381
REMARK  161  A    between atoms: _381  and  _382
REMARK  162  A    between atoms: _382  and  _383
REMARK  163  A    between atoms: _385  and  _387
REMARK  164  A    between atoms: _387  and  _388
REMARK  165  A    between atoms: _387  and  _390
REMARK  166  A    between atoms: _390  and  _391
REMARK  167  A    between atoms: _394  and  _396
REMARK  168  A    between atoms: _396  and  _397
REMARK  169  A    between atoms: _399  and  _401
REMARK  170  A    between atoms: _401  and  _402
REMARK  171  A    between atoms: _404  and  _406
REMARK  172  A    between atoms: _406  and  _407
REMARK  173  A    between atoms: _406  and  _409
REMARK  174  A    between atoms: _409  and  _410
REMARK  175  A    between atoms: _413  and  _415
REMARK  176  A    between atoms: _415  and  _416
REMARK  177  A    between atoms: _418  and  _420
REMARK  178  A    between atoms: _420  and  _421
REMARK  179  A    between atoms: _423  and  _425
REMARK  180  A    between atoms: _425  and  _426
REMARK  181  A    between atoms: _425  and  _428
REMARK  182  A    between atoms: _428  and  _429
REMARK  183  A    between atoms: _432  and  _434
REMARK  184  A    between atoms: _434  and  _435
REMARK  185  A    between atoms: _434  and  _437
REMARK  186  A    between atoms: _440  and  _442
REMARK  187  A    between atoms: _442  and  _443
REMARK  188  A    between atoms: _442  and  _445
REMARK  189  A    between atoms: _445  and  _446
REMARK  190  A    between atoms: _449  and  _451
REMARK  191  A    between atoms: _451  and  _452
REMARK  192  A    between atoms: _451  and  _454
REMARK  193  A    between atoms: _454  and  _455
REMARK  194  A    between atoms: _459  and  _460
REMARK  195  A    between atoms: _465  and  _467
REMARK  196  A    between atoms: _467  and  _468
REMARK  197  A    between atoms: _467  and  _470
REMARK  198  A    between atoms: _473  and  _475
REMARK  199  A    between atoms: _475  and  _476
REMARK  200  A    between atoms: _475  and  _478
REMARK  201  A    between atoms: _478  and  _479
REMARK  202  A    between atoms: _484  and  _486
REMARK  203  A    between atoms: _486  and  _487
REMARK  204  A    between atoms: _486  and  _489
REMARK  205  A    between atoms: _489  and  _490
REMARK  206  A    between atoms: _493  and  _495
REMARK  207  A    between atoms: _495  and  _496
REMARK  208  A    between atoms: _495  and  _498
REMARK  209  A    between atoms: _498  and  _499
REMARK  210  A    between atoms: _502  and  _504
REMARK  211  A    between atoms: _504  and  _505
REMARK  212  A    between atoms: _507  and  _509
REMARK  213  A    between atoms: _509  and  _510
REMARK  214  A    between atoms: _509  and  _512
REMARK  215  A    between atoms: _512  and  _513
REMARK  216  A    between atoms: _513  and  _514
REMARK  217  A    between atoms: _514  and  _515
REMARK  218  A    between atoms: _524  and  _526
REMARK  219  A    between atoms: _526  and  _527
REMARK  220  A    between atoms: _526  and  _529
REMARK  221  A    between atoms: _529  and  _530
REMARK                            x       y       z     vdW  Elec       q    Type
REMARK                         _______ _______ _______ _____ _____    ______ ____
ROOT
ATOM      1  O   HOH     1      14.294 -18.723  14.296  0.00  0.00    +0.000 OA
ENDROOT
TORSDOF 0
REMARK  Name = ../refined-set-2016/4hla/4hla_pocket.pdb
REMARK  221 active torsions:
REMARK  status: ('A' for Active; 'I' for Inactive)
REMARK    1  A    between atoms: _1  and  _3
REMARK    2  A    between atoms: _3  and  _4
REMARK    3  A    between atoms: _3  and  _6
REMARK    4  A    between atoms: _6  and  _7
REMARK    5  A    between atoms: _7  and  _8
REMARK    6  A    between atoms: _8  and  _9
REMARK    7  A    between atoms: _18  and  _20
REMARK    8  A    between atoms: _20  and  _21
REMARK    9  A    between atoms: _20  and  _23
REMARK   10  A    between atoms: _23  and  _24
REMARK   11  A    between atoms: _27  and  _29
REMARK   12  A    between atoms: _29  and  _30
REMARK   13  A    between atoms: _29  and  _32
REMARK   14  A    between atoms: _32  and  _33
REMARK   15  A    between atoms: _36  and  _38
REMARK   16  A    between atoms: _38  and  _39
REMARK   17  A    between atoms: _38  and  _41
REMARK   18  A    between atoms: _41  and  _42
REMARK   19  A    between atoms: _45  and  _47
REMARK   20  A    between atoms: _47  and  _48
REMARK   21  A    between atoms: _47  and  _50
REMARK   22  A    between atoms: _50  and  _51
REMARK   23  A    between atoms: _54  and  _56
REMARK   24  A    between atoms: _56  and  _57
REMARK   25  A    between atoms: _59  and  _61
REMARK   26  A    between atoms: _61  and  _62
REMARK   27  A    between atoms: _65  and  _67
REMARK   28  A    between atoms: _67  and  _68
REMARK   29  A    between atoms: _67  and  _70
REMARK   30  A    between atoms: _70  and  _71
REMARK   31  A    between atoms: _74  and  _76
REMARK   32  A    between atoms: _76  and  _77
REMARK   33  A    between atoms: _76  and  _79
REMARK   34  A    between atoms: _79  and  _80
REMARK   35  A    between atoms: _83  and  _85
REMARK   36  A    between atoms: _85  and  _86
REMARK   37  A    between atoms: _85  and  _88
REMARK   38  A    between atoms: _88  and  _89
REMARK   39  A    between atoms: _92  and  _94
REMARK   40  A    between atoms: _94  and  _95
REMARK   41  A    between atoms: _94  and  _97
REMARK   42  A    between atoms: _100  and  _102
REMARK   43  A    between atoms: _102  and  _103
REMARK   44  A    between atoms: _102  and  _105
REMARK   45  A    between atoms: _105  and  _106
REMARK   46  A    between atoms: _106  and  _107
REMARK   47  A    between atoms: _107  and  _108
REMARK   48  A    between atoms: _108  and  _109
REMARK   49  A    between atoms: _113  and  _115
REMARK   50  A    between atoms: _115  and  _116
REMARK   51  A    between atoms: _115  and  _118
REMARK   52  A    between atoms: _118  and  _119
REMARK   53  A    between atoms: _119  and  _120
REMARK   54  A    between atoms: _122  and  _124
REMARK   55  A    between atoms: _124  and  _125
REMARK   56  A    between atoms: _124  and  _127
REMARK   57  A    between atoms: _127  and  _128
REMARK   58  A    between atoms: _131  and  _133
REMARK   59  A    between atoms: _133  and  _134
REMARK   60  A    between atoms: _136  and  _138
REMARK   61  A    between atoms: _138  and  _139
REMARK   62  A    between atoms: _141  and  _143
REMARK   63  A    between atoms: _143  and  _144
REMARK   64  A    between atoms: _143  and  _146
REMARK   65  A    between atoms: _146  and  _147
REMARK   66  A    between atoms: _150  and  _152
REMARK   67  A    between atoms: _152  and  _153
REMARK   68  A    between atoms: _155  and  _157
REMARK   69  A    between atoms: _157  and  _158
REMARK   70  A    between atoms: _160  and  _162
REMARK   71  A    between atoms: _162  and  _163
REMARK   72  A    between atoms: _162  and  _165
REMARK   73  A    between atoms: _165  and  _166
REMARK   74  A    between atoms: _169  and  _171
REMARK   75  A    between atoms: _171  and  _172
REMARK   76  A    between atoms: _171  and  _174
REMARK   77  A    between atoms: _174  and  _175
REMARK   78  A    between atoms: _178  and  _180
REMARK   79  A    between atoms: _180  and  _181
REMARK   80  A    between atoms: _180  and  _183
REMARK   81  A    between atoms: _183  and  _184
REMARK   82  A    between atoms: _188  and  _189
REMARK   83  A    between atoms: _194  and  _196
REMARK   84  A    between atoms: _196  and  _197
REMARK   85  A    between atoms: _196  and  _199
REMARK   86  A    between atoms: _202  and  _204
REMARK   87  A    between atoms: _204  and  _205
REMARK   88  A    between atoms: _204  and  _207
REMARK   89  A    between atoms: _207  and  _208
REMARK   90  A    between atoms: _213  and  _215
REMARK   91  A    between atoms: _215  and  _216
REMARK   92  A    between atoms: _215  and  _218
REMARK   93  A    between atoms: _218  and  _219
REMARK   94  A    between atoms: _222  and  _224
REMARK   95  A    between atoms: _224  and  _225
REMARK   96  A    between atoms: _224  and  _227
REMARK   97  A    between atoms: _227  and  _228
REMARK   98  A    between atoms: _231  and  _233
REMARK   99  A    between atoms: _233  and  _234
REMARK  100  A    between atoms: _236  and  _238
REMARK  101  A    between atoms: _238  and  _239
REMARK  102  A    between atoms: _238  and  _241
REMARK  103  A    between atoms: _241  and  _242
REMARK  104  A    between atoms: _242  and  _243
REMARK  105  A    between atoms: _243  and  _244
REMARK  106  A    between atoms: _253  and  _255
REMARK  107  A    between atoms: _255  and  _256
REMARK  108  A    between atoms: _255  and  _258
REMARK  109  A    between atoms: _258  and  _259
REMARK  110  A    between atoms: _264  and  _266
REMARK  111  A    between atoms: _266  and  _267
REMARK  112  A    between atoms: _266  and  _269
REMARK  113  A    between atoms: _269  and  _270
REMARK  114  A    between atoms: _270  and  _271
REMARK  115  A    between atoms: _271  and  _272
REMARK  116  A    between atoms: _281  and  _283
REMARK  117  A    between atoms: _283  and  _284
REMARK  118  A    between atoms: _283  and  _286
REMARK  119  A    between atoms: _286  and  _287
REMARK  120  A    between atoms: _290  and  _292
REMARK  121  A    between atoms: _292  and  _293
REMARK  122  A    between atoms: _292  and  _295
REMARK  123  A    between atoms: _295  and  _296
REMARK  124  A    between atoms: _299  and  _301
REMARK  125  A    between atoms: _301  and  _302
REMARK  126  A    between atoms: _301  and  _304
REMARK  127  A    between atoms: _304  and  _305
REMARK  128  A    between atoms: _308  and  _310
REMARK  129  A    between atoms: _310  and  _311
REMARK  130  A    between atoms: _310  and  _313
REMARK  131  A    between atoms: _313  and  _314
REMARK  132  A    between atoms: _317  and  _319
REMARK  133  A    between atoms: _319  and  _320
REMARK  134  A    between atoms: _322  and  _324
REMARK  135  A    between atoms: _324  and  _325
REMARK  136  A    between atoms: _328  and  _330
REMARK  137  A    between atoms: _330  and  _331
REMARK  138  A    between atoms: _330  and  _333
REMARK  139  A    between atoms: _333  and  _334
REMARK  140  A    between atoms: _337  and  _339
REMARK  141  A    between atoms: _339  and  _340
REMARK  142  A    between atoms: _339  and  _342
REMARK  143  A    between atoms: _342  and  _343
REMARK  144  A    between atoms: _346  and  _348
REMARK  145  A    between atoms: _348  and  _349
REMARK  146  A    between atoms: _348  and  _351
REMARK  147  A    between atoms: _351  and  _352
REMARK  148  A    between atoms: _355  and  _357
REMARK  149  A    between atoms: _357  and  _358
REMARK  150  A    between atoms: _357  and  _360
REMARK  151  A    between atoms: _363  and  _365
REMARK  152  A    between atoms: _365  and  _366
REMARK  153  A    between atoms: _365  and  _368
REMARK  154  A    between atoms: _368  and  _369
REMARK  155  A    between atoms: _369  and  _370
REMARK  156  A    between atoms: _370  and  _371
REMARK  157  A    between atoms: _371  and  _372
REMARK  158  A    between atoms: _376  and  _378
REMARK  159  A    between atoms: _378  and  _379
REMARK  160  A    between atoms: _378  and  _381
REMARK  161  A    between atoms: _381  and  _382
REMARK  162  A    between atoms: _382  and  _383
REMARK  163  A    between atoms: _385  and  _387
REMARK  164  A    between atoms: _387  and  _388
REMARK  165  A    between atoms: _387  and  _390
REMARK  166  A    between atoms: _390  and  _391
REMARK  167  A    between atoms: _394  and  _396
REMARK  168  A    between atoms: _396  and  _397
REMARK  169  A    between atoms: _399  and  _401
REMARK  170  A    between atoms: _401  and  _402
REMARK  171  A    between atoms: _404  and  _406
REMARK  172  A    between atoms: _406  and  _407
REMARK  173  A    between atoms: _406  and  _409
REMARK  174  A    between atoms: _409  and  _410
REMARK  175  A    between atoms: _413  and  _415
REMARK  176  A    between atoms: _415  and  _416
REMARK  177  A    between atoms: _418  and  _420
REMARK  178  A    between atoms: _420  and  _421
REMARK  179  A    between atoms: _423  and  _425
REMARK  180  A    between atoms: _425  and  _426
REMARK  181  A    between atoms: _425  and  _428
REMARK  182  A    between atoms: _428  and  _429
REMARK  183  A    between atoms: _432  and  _434
REMARK  184  A    between atoms: _434  and  _435
REMARK  185  A    between atoms: _434  and  _437
REMARK  186  A    between atoms: _440  and  _442
REMARK  187  A    between atoms: _442  and  _443
REMARK  188  A    between atoms: _442  and  _445
REMARK  189  A    between atoms: _445  and  _446
REMARK  190  A    between atoms: _449  and  _451
REMARK  191  A    between atoms: _451  and  _452
REMARK  192  A    between atoms: _451  and  _454
REMARK  193  A    between atoms: _454  and  _455
REMARK  194  A    between atoms: _459  and  _460
REMARK  195  A    between atoms: _465  and  _467
REMARK  196  A    between atoms: _467  and  _468
REMARK  197  A    between atoms: _467  and  _470
REMARK  198  A    between atoms: _473  and  _475
REMARK  199  A    between atoms: _475  and  _476
REMARK  200  A    between atoms: _475  and  _478
REMARK  201  A    between atoms: _478  and  _479
REMARK  202  A    between atoms: _484  and  _486
REMARK  203  A    between atoms: _486  and  _487
REMARK  204  A    between atoms: _486  and  _489
REMARK  205  A    between atoms: _489  and  _490
REMARK  206  A    between atoms: _493  and  _495
REMARK  207  A    between atoms: _495  and  _496
REMARK  208  A    between atoms: _495  and  _498
REMARK  209  A    between atoms: _498  and  _499
REMARK  210  A    between atoms: _502  and  _504
REMARK  211  A    between atoms: _504  and  _505
REMARK  212  A    between atoms: _507  and  _509
REMARK  213  A    between atoms: _509  and  _510
REMARK  214  A    between atoms: _509  and  _512
REMARK  215  A    between atoms: _512  and  _513
REMARK  216  A    between atoms: _513  and  _514
REMARK  217  A    between atoms: _514  and  _515
REMARK  218  A    between atoms: _524  and  _526
REMARK  219  A    between atoms: _526  and  _527
REMARK  220  A    between atoms: _526  and  _529
REMARK  221  A    between atoms: _529  and  _530
REMARK                            x       y       z     vdW  Elec       q    Type
REMARK                         _______ _______ _______ _____ _____    ______ ____
ROOT
ATOM      1  O   HOH     1       2.072 -22.425  -7.956  0.00  0.00    +0.000 OA
ENDROOT
TORSDOF 0
REMARK  Name = ../refined-set-2016/4hla/4hla_pocket.pdb
REMARK  221 active torsions:
REMARK  status: ('A' for Active; 'I' for Inactive)
REMARK    1  A    between atoms: _1  and  _3
REMARK    2  A    between atoms: _3  and  _4
REMARK    3  A    between atoms: _3  and  _6
REMARK    4  A    between atoms: _6  and  _7
REMARK    5  A    between atoms: _7  and  _8
REMARK    6  A    between atoms: _8  and  _9
REMARK    7  A    between atoms: _18  and  _20
REMARK    8  A    between atoms: _20  and  _21
REMARK    9  A    between atoms: _20  and  _23
REMARK   10  A    between atoms: _23  and  _24
REMARK   11  A    between atoms: _27  and  _29
REMARK   12  A    between atoms: _29  and  _30
REMARK   13  A    between atoms: _29  and  _32
REMARK   14  A    between atoms: _32  and  _33
REMARK   15  A    between atoms: _36  and  _38
REMARK   16  A    between atoms: _38  and  _39
REMARK   17  A    between atoms: _38  and  _41
REMARK   18  A    between atoms: _41  and  _42
REMARK   19  A    between atoms: _45  and  _47
REMARK   20  A    between atoms: _47  and  _48
REMARK   21  A    between atoms: _47  and  _50
REMARK   22  A    between atoms: _50  and  _51
REMARK   23  A    between atoms: _54  and  _56
REMARK   24  A    between atoms: _56  and  _57
REMARK   25  A    between atoms: _59  and  _61
REMARK   26  A    between atoms: _61  and  _62
REMARK   27  A    between atoms: _65  and  _67
REMARK   28  A    between atoms: _67  and  _68
REMARK   29  A    between atoms: _67  and  _70
REMARK   30  A    between atoms: _70  and  _71
REMARK   31  A    between atoms: _74  and  _76
REMARK   32  A    between atoms: _76  and  _77
REMARK   33  A    between atoms: _76  and  _79
REMARK   34  A    between atoms: _79  and  _80
REMARK   35  A    between atoms: _83  and  _85
REMARK   36  A    between atoms: _85  and  _86
REMARK   37  A    between atoms: _85  and  _88
REMARK   38  A    between atoms: _88  and  _89
REMARK   39  A    between atoms: _92  and  _94
REMARK   40  A    between atoms: _94  and  _95
REMARK   41  A    between atoms: _94  and  _97
REMARK   42  A    between atoms: _100  and  _102
REMARK   43  A    between atoms: _102  and  _103
REMARK   44  A    between atoms: _102  and  _105
REMARK   45  A    between atoms: _105  and  _106
REMARK   46  A    between atoms: _106  and  _107
REMARK   47  A    between atoms: _107  and  _108
REMARK   48  A    between atoms: _108  and  _109
REMARK   49  A    between atoms: _113  and  _115
REMARK   50  A    between atoms: _115  and  _116
REMARK   51  A    between atoms: _115  and  _118
REMARK   52  A    between atoms: _118  and  _119
REMARK   53  A    between atoms: _119  and  _120
REMARK   54  A    between atoms: _122  and  _124
REMARK   55  A    between atoms: _124  and  _125
REMARK   56  A    between atoms: _124  and  _127
REMARK   57  A    between atoms: _127  and  _128
REMARK   58  A    between atoms: _131  and  _133
REMARK   59  A    between atoms: _133  and  _134
REMARK   60  A    between atoms: _136  and  _138
REMARK   61  A    between atoms: _138  and  _139
REMARK   62  A    between atoms: _141  and  _143
REMARK   63  A    between atoms: _143  and  _144
REMARK   64  A    between atoms: _143  and  _146
REMARK   65  A    between atoms: _146  and  _147
REMARK   66  A    between atoms: _150  and  _152
REMARK   67  A    between atoms: _152  and  _153
REMARK   68  A    between atoms: _155  and  _157
REMARK   69  A    between atoms: _157  and  _158
REMARK   70  A    between atoms: _160  and  _162
REMARK   71  A    between atoms: _162  and  _163
REMARK   72  A    between atoms: _162  and  _165
REMARK   73  A    between atoms: _165  and  _166
REMARK   74  A    between atoms: _169  and  _171
REMARK   75  A    between atoms: _171  and  _172
REMARK   76  A    between atoms: _171  and  _174
REMARK   77  A    between atoms: _174  and  _175
REMARK   78  A    between atoms: _178  and  _180
REMARK   79  A    between atoms: _180  and  _181
REMARK   80  A    between atoms: _180  and  _183
REMARK   81  A    between atoms: _183  and  _184
REMARK   82  A    between atoms: _188  and  _189
REMARK   83  A    between atoms: _194  and  _196
REMARK   84  A    between atoms: _196  and  _197
REMARK   85  A    between atoms: _196  and  _199
REMARK   86  A    between atoms: _202  and  _204
REMARK   87  A    between atoms: _204  and  _205
REMARK   88  A    between atoms: _204  and  _207
REMARK   89  A    between atoms: _207  and  _208
REMARK   90  A    between atoms: _213  and  _215
REMARK   91  A    between atoms: _215  and  _216
REMARK   92  A    between atoms: _215  and  _218
REMARK   93  A    between atoms: _218  and  _219
REMARK   94  A    between atoms: _222  and  _224
REMARK   95  A    between atoms: _224  and  _225
REMARK   96  A    between atoms: _224  and  _227
REMARK   97  A    between atoms: _227  and  _228
REMARK   98  A    between atoms: _231  and  _233
REMARK   99  A    between atoms: _233  and  _234
REMARK  100  A    between atoms: _236  and  _238
REMARK  101  A    between atoms: _238  and  _239
REMARK  102  A    between atoms: _238  and  _241
REMARK  103  A    between atoms: _241  and  _242
REMARK  104  A    between atoms: _242  and  _243
REMARK  105  A    between atoms: _243  and  _244
REMARK  106  A    between atoms: _253  and  _255
REMARK  107  A    between atoms: _255  and  _256
REMARK  108  A    between atoms: _255  and  _258
REMARK  109  A    between atoms: _258  and  _259
REMARK  110  A    between atoms: _264  and  _266
REMARK  111  A    between atoms: _266  and  _267
REMARK  112  A    between atoms: _266  and  _269
REMARK  113  A    between atoms: _269  and  _270
REMARK  114  A    between atoms: _270  and  _271
REMARK  115  A    between atoms: _271  and  _272
REMARK  116  A    between atoms: _281  and  _283
REMARK  117  A    between atoms: _283  and  _284
REMARK  118  A    between atoms: _283  and  _286
REMARK  119  A    between atoms: _286  and  _287
REMARK  120  A    between atoms: _290  and  _292
REMARK  121  A    between atoms: _292  and  _293
REMARK  122  A    between atoms: _292  and  _295
REMARK  123  A    between atoms: _295  and  _296
REMARK  124  A    between atoms: _299  and  _301
REMARK  125  A    between atoms: _301  and  _302
REMARK  126  A    between atoms: _301  and  _304
REMARK  127  A    between atoms: _304  and  _305
REMARK  128  A    between atoms: _308  and  _310
REMARK  129  A    between atoms: _310  and  _311
REMARK  130  A    between atoms: _310  and  _313
REMARK  131  A    between atoms: _313  and  _314
REMARK  132  A    between atoms: _317  and  _319
REMARK  133  A    between atoms: _319  and  _320
REMARK  134  A    between atoms: _322  and  _324
REMARK  135  A    between atoms: _324  and  _325
REMARK  136  A    between atoms: _328  and  _330
REMARK  137  A    between atoms: _330  and  _331
REMARK  138  A    between atoms: _330  and  _333
REMARK  139  A    between atoms: _333  and  _334
REMARK  140  A    between atoms: _337  and  _339
REMARK  141  A    between atoms: _339  and  _340
REMARK  142  A    between atoms: _339  and  _342
REMARK  143  A    between atoms: _342  and  _343
REMARK  144  A    between atoms: _346  and  _348
REMARK  145  A    between atoms: _348  and  _349
REMARK  146  A    between atoms: _348  and  _351
REMARK  147  A    between atoms: _351  and  _352
REMARK  148  A    between atoms: _355  and  _357
REMARK  149  A    between atoms: _357  and  _358
REMARK  150  A    between atoms: _357  and  _360
REMARK  151  A    between atoms: _363  and  _365
REMARK  152  A    between atoms: _365  and  _366
REMARK  153  A    between atoms: _365  and  _368
REMARK  154  A    between atoms: _368  and  _369
REMARK  155  A    between atoms: _369  and  _370
REMARK  156  A    between atoms: _370  and  _371
REMARK  157  A    between atoms: _371  and  _372
REMARK  158  A    between atoms: _376  and  _378
REMARK  159  A    between atoms: _378  and  _379
REMARK  160  A    between atoms: _378  and  _381
REMARK  161  A    between atoms: _381  and  _382
REMARK  162  A    between atoms: _382  and  _383
REMARK  163  A    between atoms: _385  and  _387
REMARK  164  A    between atoms: _387  and  _388
REMARK  165  A    between atoms: _387  and  _390
REMARK  166  A    between atoms: _390  and  _391
REMARK  167  A    between atoms: _394  and  _396
REMARK  168  A    between atoms: _396  and  _397
REMARK  169  A    between atoms: _399  and  _401
REMARK  170  A    between atoms: _401  and  _402
REMARK  171  A    between atoms: _404  and  _406
REMARK  172  A    between atoms: _406  and  _407
REMARK  173  A    between atoms: _406  and  _409
REMARK  174  A    between atoms: _409  and  _410
REMARK  175  A    between atoms: _413  and  _415
REMARK  176  A    between atoms: _415  and  _416
REMARK  177  A    between atoms: _418  and  _420
REMARK  178  A    between atoms: _420  and  _421
REMARK  179  A    between atoms: _423  and  _425
REMARK  180  A    between atoms: _425  and  _426
REMARK  181  A    between atoms: _425  and  _428
REMARK  182  A    between atoms: _428  and  _429
REMARK  183  A    between atoms: _432  and  _434
REMARK  184  A    between atoms: _434  and  _435
REMARK  185  A    between atoms: _434  and  _437
REMARK  186  A    between atoms: _440  and  _442
REMARK  187  A    between atoms: _442  and  _443
REMARK  188  A    between atoms: _442  and  _445
REMARK  189  A    between atoms: _445  and  _446
REMARK  190  A    between atoms: _449  and  _451
REMARK  191  A    between atoms: _451  and  _452
REMARK  192  A    between atoms: _451  and  _454
REMARK  193  A    between atoms: _454  and  _455
REMARK  194  A    between atoms: _459  and  _460
REMARK  195  A    between atoms: _465  and  _467
REMARK  196  A    between atoms: _467  and  _468
REMARK  197  A    between atoms: _467  and  _470
REMARK  198  A    between atoms: _473  and  _475
REMARK  199  A    between atoms: _475  and  _476
REMARK  200  A    between atoms: _475  and  _478
REMARK  201  A    between atoms: _478  and  _479
REMARK  202  A    between atoms: _484  and  _486
REMARK  203  A    between atoms: _486  and  _487
REMARK  204  A    between atoms: _486  and  _489
REMARK  205  A    between atoms: _489  and  _490
REMARK  206  A    between atoms: _493  and  _495
REMARK  207  A    between atoms: _495  and  _496
REMARK  208  A    between atoms: _495  and  _498
REMARK  209  A    between atoms: _498  and  _499
REMARK  210  A    between atoms: _502  and  _504
REMARK  211  A    between atoms: _504  and  _505
REMARK  212  A    between atoms: _507  and  _509
REMARK  213  A    between atoms: _509  and  _510
REMARK  214  A    between atoms: _509  and  _512
REMARK  215  A    between atoms: _512  and  _513
REMARK  216  A    between atoms: _513  and  _514
REMARK  217  A    between atoms: _514  and  _515
REMARK  218  A    between atoms: _524  and  _526
REMARK  219  A    between atoms: _526  and  _527
REMARK  220  A    between atoms: _526  and  _529
REMARK  221  A    between atoms: _529  and  _530
REMARK                            x       y       z     vdW  Elec       q    Type
REMARK                         _______ _______ _______ _____ _____    ______ ____
ROOT
ATOM      1  O   HOH     1      11.628 -10.137   8.693  0.00  0.00    +0.000 OA
ENDROOT
TORSDOF 0
