REMARK  Name = ../refined-set-2016/4m6u/4m6u_pocket.pdb
REMARK  160 active torsions:
REMARK  status: ('A' for Active; 'I' for Inactive)
REMARK    1  A    between atoms: _1  and  _3
REMARK    2  A    between atoms: _3  and  _4
REMARK    3  A    between atoms: _3  and  _6
REMARK    4  A    between atoms: _9  and  _11
REMARK    5  A    between atoms: _11  and  _12
REMARK    6  A    between atoms: _11  and  _14
REMARK    7  A    between atoms: _14  and  _15
REMARK    8  A    between atoms: _20  and  _22
REMARK    9  A    between atoms: _22  and  _23
REMARK   10  A    between atoms: _22  and  _25
REMARK   11  A    between atoms: _25  and  _26
REMARK   12  A    between atoms: _29  and  _31
REMARK   13  A    between atoms: _31  and  _32
REMARK   14  A    between atoms: _35  and  _37
REMARK   15  A    between atoms: _37  and  _38
REMARK   16  A    between atoms: _37  and  _40
REMARK   17  A    between atoms: _43  and  _45
REMARK   18  A    between atoms: _45  and  _46
REMARK   19  A    between atoms: _45  and  _48
REMARK   20  A    between atoms: _51  and  _53
REMARK   21  A    between atoms: _53  and  _54
REMARK   22  A    between atoms: _53  and  _56
REMARK   23  A    between atoms: _56  and  _57
REMARK   24  A    between atoms: _63  and  _65
REMARK   25  A    between atoms: _65  and  _66
REMARK   26  A    between atoms: _65  and  _68
REMARK   27  A    between atoms: _68  and  _69
REMARK   28  A    between atoms: _74  and  _75
REMARK   29  A    between atoms: _77  and  _79
REMARK   30  A    between atoms: _79  and  _80
REMARK   31  A    between atoms: _79  and  _82
REMARK   32  A    between atoms: _82  and  _83
REMARK   33  A    between atoms: _88  and  _89
REMARK   34  A    between atoms: _91  and  _93
REMARK   35  A    between atoms: _93  and  _94
REMARK   36  A    between atoms: _93  and  _96
REMARK   37  A    between atoms: _96  and  _97
REMARK   38  A    between atoms: _99  and  _101
REMARK   39  A    between atoms: _101  and  _102
REMARK   40  A    between atoms: _101  and  _104
REMARK   41  A    between atoms: _104  and  _105
REMARK   42  A    between atoms: _110  and  _112
REMARK   43  A    between atoms: _112  and  _113
REMARK   44  A    between atoms: _112  and  _115
REMARK   45  A    between atoms: _115  and  _116
REMARK   46  A    between atoms: _118  and  _120
REMARK   47  A    between atoms: _120  and  _121
REMARK   48  A    between atoms: _120  and  _123
REMARK   49  A    between atoms: _123  and  _124
REMARK   50  A    between atoms: _124  and  _125
REMARK   51  A    between atoms: _125  and  _126
REMARK   52  A    between atoms: _126  and  _127
REMARK   53  A    between atoms: _131  and  _133
REMARK   54  A    between atoms: _133  and  _134
REMARK   55  A    between atoms: _133  and  _136
REMARK   56  A    between atoms: _136  and  _137
REMARK   57  A    between atoms: _137  and  _138
REMARK   58  A    between atoms: _138  and  _139
REMARK   59  A    between atoms: _139  and  _140
REMARK   60  A    between atoms: _144  and  _146
REMARK   61  A    between atoms: _146  and  _147
REMARK   62  A    between atoms: _146  and  _149
REMARK   63  A    between atoms: _149  and  _150
REMARK   64  A    between atoms: _153  and  _155
REMARK   65  A    between atoms: _155  and  _156
REMARK   66  A    between atoms: _155  and  _158
REMARK   67  A    between atoms: _158  and  _159
REMARK   68  A    between atoms: _164  and  _165
REMARK   69  A    between atoms: _167  and  _169
REMARK   70  A    between atoms: _169  and  _170
REMARK   71  A    between atoms: _169  and  _172
REMARK   72  A    between atoms: _172  and  _173
REMARK   73  A    between atoms: _178  and  _180
REMARK   74  A    between atoms: _180  and  _181
REMARK   75  A    between atoms: _180  and  _183
REMARK   76  A    between atoms: _183  and  _184
REMARK   77  A    between atoms: _184  and  _185
REMARK   78  A    between atoms: _190  and  _192
REMARK   79  A    between atoms: _192  and  _193
REMARK   80  A    between atoms: _192  and  _195
REMARK   81  A    between atoms: _195  and  _196
REMARK   82  A    between atoms: _206  and  _208
REMARK   83  A    between atoms: _208  and  _209
REMARK   84  A    between atoms: _208  and  _211
REMARK   85  A    between atoms: _211  and  _212
REMARK   86  A    between atoms: _212  and  _213
REMARK   87  A    between atoms: _213  and  _215
REMARK   88  A    between atoms: _215  and  MG_372
REMARK   89  A    between atoms: _216  and  _218
REMARK   90  A    between atoms: _218  and  _219
REMARK   91  A    between atoms: _218  and  _221
REMARK   92  A    between atoms: _221  and  _222
REMARK   93  A    between atoms: _222  and  _223
REMARK   94  A    between atoms: _226  and  _228
REMARK   95  A    between atoms: _228  and  _229
REMARK   96  A    between atoms: _228  and  _231
REMARK   97  A    between atoms: _231  and  _232
REMARK   98  A    between atoms: _232  and  _233
REMARK   99  A    between atoms: _238  and  _240
REMARK  100  A    between atoms: _240  and  _241
REMARK  101  A    between atoms: _240  and  _243
REMARK  102  A    between atoms: _243  and  _244
REMARK  103  A    between atoms: _244  and  _245
REMARK  104  A    between atoms: _245  and  _246
REMARK  105  A    between atoms: _246  and  MG_372
REMARK  106  A    between atoms: _248  and  _250
REMARK  107  A    between atoms: _250  and  _251
REMARK  108  A    between atoms: _250  and  _253
REMARK  109  A    between atoms: _253  and  _254
REMARK  110  A    between atoms: _259  and  _261
REMARK  111  A    between atoms: _261  and  _262
REMARK  112  A    between atoms: _261  and  _264
REMARK  113  A    between atoms: _264  and  _265
REMARK  114  A    between atoms: _265  and  _266
REMARK  115  A    between atoms: _268  and  _270
REMARK  116  A    between atoms: _270  and  _271
REMARK  117  A    between atoms: _270  and  _273
REMARK  118  A    between atoms: _273  and  _274
REMARK  119  A    between atoms: _277  and  _279
REMARK  120  A    between atoms: _279  and  _280
REMARK  121  A    between atoms: _279  and  _282
REMARK  122  A    between atoms: _282  and  _283
REMARK  123  A    between atoms: _283  and  _284
REMARK  124  A    between atoms: _284  and  _285
REMARK  125  A    between atoms: _285  and  _286
REMARK  126  A    between atoms: _290  and  _292
REMARK  127  A    between atoms: _292  and  _293
REMARK  128  A    between atoms: _292  and  _295
REMARK  129  A    between atoms: _295  and  _296
REMARK  130  A    between atoms: _298  and  _300
REMARK  131  A    between atoms: _300  and  _301
REMARK  132  A    between atoms: _300  and  _303
REMARK  133  A    between atoms: _303  and  _304
REMARK  134  A    between atoms: _309  and  _311
REMARK  135  A    between atoms: _311  and  _312
REMARK  136  A    between atoms: _311  and  _314
REMARK  137  A    between atoms: _314  and  _315
REMARK  138  A    between atoms: _318  and  _320
REMARK  139  A    between atoms: _320  and  _321
REMARK  140  A    between atoms: _320  and  _323
REMARK  141  A    between atoms: _323  and  _324
REMARK  142  A    between atoms: _324  and  _325
REMARK  143  A    between atoms: _328  and  _330
REMARK  144  A    between atoms: _330  and  _331
REMARK  145  A    between atoms: _330  and  _333
REMARK  146  A    between atoms: _333  and  _334
REMARK  147  A    between atoms: _334  and  _335
REMARK  148  A    between atoms: _335  and  _336
REMARK  149  A    between atoms: _345  and  _347
REMARK  150  A    between atoms: _347  and  _348
REMARK  151  A    between atoms: _347  and  _350
REMARK  152  A    between atoms: _350  and  _351
REMARK  153  A    between atoms: _354  and  _356
REMARK  154  A    between atoms: _356  and  _357
REMARK  155  A    between atoms: _356  and  _359
REMARK  156  A    between atoms: _359  and  _360
REMARK  157  A    between atoms: _363  and  _365
REMARK  158  A    between atoms: _365  and  _366
REMARK  159  A    between atoms: _365  and  _368
REMARK  160  A    between atoms: _368  and  _369
REMARK                            x       y       z     vdW  Elec       q    Type
REMARK                         _______ _______ _______ _____ _____    ______ ____
ROOT
ATOM      1  C   HIS A   2     -19.605  26.460 -18.450  0.00  0.00    +0.241 C 
ATOM      2  O   HIS A   2     -19.807  25.303 -18.166  0.00  0.00    -0.273 OA
ATOM      3  N   THR A   3     -18.638  26.831 -19.278  0.00  0.00    -0.295 N 
ATOM      4  H   THR A   3     -18.571  27.826 -19.572  0.00  0.00    +0.150 HD
ENDROOT
BRANCH   3   5
ATOM      5  CA  THR A   3     -17.661  25.861 -19.787  0.00  0.00    +0.176 C 
BRANCH   5   6
ATOM      6  C   THR A   3     -16.271  26.409 -19.681  0.00  0.00    +0.243 C 
ATOM      7  O   THR A   3     -16.063  27.616 -19.419  0.00  0.00    -0.273 OA
ATOM      8  N   ALA A   4     -15.311  25.526 -19.896  0.00  0.00    -0.297 N 
ATOM      9  H   ALA A   4     -15.572  24.550 -20.142  0.00  0.00    +0.150 HD
BRANCH   8  10
ATOM     10  CA  ALA A   4     -13.901  25.873 -19.800  0.00  0.00    +0.149 C 
ATOM     11  CB  ALA A   4     -13.062  24.610 -19.856  0.00  0.00    +0.031 C 
BRANCH  10  12
ATOM     12  C   ALA A   4     -13.506  26.840 -20.909  0.00  0.00    +0.241 C 
ATOM     13  O   ALA A   4     -12.416  27.438 -20.876  0.00  0.00    -0.273 OA
ATOM     14  N   VAL A   5     -14.387  26.999 -21.897  0.00  0.00    -0.298 N 
ATOM     15  H   VAL A   5     -15.275  26.458 -21.878  0.00  0.00    +0.150 HD
BRANCH  14  16
ATOM     16  CA  VAL A   5     -14.136  27.902 -22.989  0.00  0.00    +0.137 C 
BRANCH  16  17
ATOM     17  CB  VAL A   5     -14.065  27.153 -24.356  0.00  0.00    +0.026 C 
ATOM     18  CG2 VAL A   5     -12.765  26.371 -24.443  0.00  0.00    +0.002 C 
ATOM     19  CG1 VAL A   5     -15.250  26.201 -24.553  0.00  0.00    +0.002 C 
ENDBRANCH  16  17
BRANCH  16  20
ATOM     20  C   VAL A   5     -15.156  29.037 -23.055  0.00  0.00    +0.227 C 
ATOM     21  O   VAL A   5     -15.199  29.755 -24.049  0.00  0.00    -0.286 OA
ENDBRANCH  16  20
ENDBRANCH  14  16
ENDBRANCH  10  12
ENDBRANCH   8  10
ENDBRANCH   5   6
BRANCH   5  22
ATOM     22  CB  THR A   3     -17.895  25.458 -21.269  0.00  0.00    +0.137 C 
ATOM     23  CG2 THR A   3     -19.359  25.343 -21.630  0.00  0.00    +0.034 C 
BRANCH  22  24
ATOM     24  OG1 THR A   3     -17.262  26.413 -22.120  0.00  0.00    -0.382 OA
ATOM     25  HG1 THR A   3     -17.649  27.309 -21.954  0.00  0.00    +0.210 HD
ENDBRANCH  22  24
ENDBRANCH   5  22
ENDBRANCH   3   5
BRANCH   1  26
ATOM     26  CA  HIS A   2     -20.468  27.572 -17.821  0.00  0.00    +0.155 C 
BRANCH  26  28
ATOM     27  C   VAL A   1     -22.542  27.155 -18.991  0.00  0.00    +0.238 C 
ATOM     28  N   HIS A   2     -21.855  27.141 -17.855  0.00  0.00    -0.297 N 
ATOM     29  H   HIS A   2     -22.315  26.818 -16.980  0.00  0.00    +0.150 HD
ATOM     30  O   VAL A   1     -22.075  27.598 -20.035  0.00  0.00    -0.274 OA
BRANCH  27  31
ATOM     31  CA  VAL A   1     -23.978  26.605 -18.930  0.00  0.00    +0.145 C 
BRANCH  31  32
ATOM     32  CB  VAL A   1     -24.317  25.911 -20.268  0.00  0.00    +0.025 C 
ATOM     33  CG2 VAL A   1     -25.754  25.433 -20.267  0.00  0.00    +0.002 C 
ATOM     34  CG1 VAL A   1     -23.361  24.737 -20.495  0.00  0.00    +0.002 C 
ENDBRANCH  31  32
BRANCH  31  35
ATOM     35  N   VAL A   1     -24.926  27.669 -18.595  0.00  0.00    -0.238 NA
ATOM     36  H   VAL A   1     -25.427  28.173 -19.354  0.00  0.00    +0.142 HD
ENDBRANCH  31  35
ENDBRANCH  27  31
ENDBRANCH  26  28
BRANCH  26  37
ATOM     37  CB  HIS A   2     -19.988  27.815 -16.381  0.00  0.00    +0.076 C 
BRANCH  37  38
ATOM     38  CG  HIS A   2     -20.839  28.758 -15.580  0.00  0.00    +0.082 A 
ATOM     39  CD2 HIS A   2     -21.493  28.590 -14.400  0.00  0.00    +0.115 A 
ATOM     40  NE2 HIS A   2     -22.103  29.788 -14.099  0.00  0.00    -0.221 NA
ATOM     41  CE1 HIS A   2     -21.820  30.660 -15.049  0.00  0.00    +0.199 A 
ATOM     42  ND1 HIS A   2     -21.052  30.068 -15.949  0.00  0.00    -0.227 NA
ENDBRANCH  37  38
ENDBRANCH  26  37
ENDBRANCH   1  26
TORSDOF 16
REMARK  Name = ../refined-set-2016/4m6u/4m6u_pocket.pdb
REMARK  160 active torsions:
REMARK  status: ('A' for Active; 'I' for Inactive)
REMARK    1  A    between atoms: _1  and  _3
REMARK    2  A    between atoms: _3  and  _4
REMARK    3  A    between atoms: _3  and  _6
REMARK    4  A    between atoms: _9  and  _11
REMARK    5  A    between atoms: _11  and  _12
REMARK    6  A    between atoms: _11  and  _14
REMARK    7  A    between atoms: _14  and  _15
REMARK    8  A    between atoms: _20  and  _22
REMARK    9  A    between atoms: _22  and  _23
REMARK   10  A    between atoms: _22  and  _25
REMARK   11  A    between atoms: _25  and  _26
REMARK   12  A    between atoms: _29  and  _31
REMARK   13  A    between atoms: _31  and  _32
REMARK   14  A    between atoms: _35  and  _37
REMARK   15  A    between atoms: _37  and  _38
REMARK   16  A    between atoms: _37  and  _40
REMARK   17  A    between atoms: _43  and  _45
REMARK   18  A    between atoms: _45  and  _46
REMARK   19  A    between atoms: _45  and  _48
REMARK   20  A    between atoms: _51  and  _53
REMARK   21  A    between atoms: _53  and  _54
REMARK   22  A    between atoms: _53  and  _56
REMARK   23  A    between atoms: _56  and  _57
REMARK   24  A    between atoms: _63  and  _65
REMARK   25  A    between atoms: _65  and  _66
REMARK   26  A    between atoms: _65  and  _68
REMARK   27  A    between atoms: _68  and  _69
REMARK   28  A    between atoms: _74  and  _75
REMARK   29  A    between atoms: _77  and  _79
REMARK   30  A    between atoms: _79  and  _80
REMARK   31  A    between atoms: _79  and  _82
REMARK   32  A    between atoms: _82  and  _83
REMARK   33  A    between atoms: _88  and  _89
REMARK   34  A    between atoms: _91  and  _93
REMARK   35  A    between atoms: _93  and  _94
REMARK   36  A    between atoms: _93  and  _96
REMARK   37  A    between atoms: _96  and  _97
REMARK   38  A    between atoms: _99  and  _101
REMARK   39  A    between atoms: _101  and  _102
REMARK   40  A    between atoms: _101  and  _104
REMARK   41  A    between atoms: _104  and  _105
REMARK   42  A    between atoms: _110  and  _112
REMARK   43  A    between atoms: _112  and  _113
REMARK   44  A    between atoms: _112  and  _115
REMARK   45  A    between atoms: _115  and  _116
REMARK   46  A    between atoms: _118  and  _120
REMARK   47  A    between atoms: _120  and  _121
REMARK   48  A    between atoms: _120  and  _123
REMARK   49  A    between atoms: _123  and  _124
REMARK   50  A    between atoms: _124  and  _125
REMARK   51  A    between atoms: _125  and  _126
REMARK   52  A    between atoms: _126  and  _127
REMARK   53  A    between atoms: _131  and  _133
REMARK   54  A    between atoms: _133  and  _134
REMARK   55  A    between atoms: _133  and  _136
REMARK   56  A    between atoms: _136  and  _137
REMARK   57  A    between atoms: _137  and  _138
REMARK   58  A    between atoms: _138  and  _139
REMARK   59  A    between atoms: _139  and  _140
REMARK   60  A    between atoms: _144  and  _146
REMARK   61  A    between atoms: _146  and  _147
REMARK   62  A    between atoms: _146  and  _149
REMARK   63  A    between atoms: _149  and  _150
REMARK   64  A    between atoms: _153  and  _155
REMARK   65  A    between atoms: _155  and  _156
REMARK   66  A    between atoms: _155  and  _158
REMARK   67  A    between atoms: _158  and  _159
REMARK   68  A    between atoms: _164  and  _165
REMARK   69  A    between atoms: _167  and  _169
REMARK   70  A    between atoms: _169  and  _170
REMARK   71  A    between atoms: _169  and  _172
REMARK   72  A    between atoms: _172  and  _173
REMARK   73  A    between atoms: _178  and  _180
REMARK   74  A    between atoms: _180  and  _181
REMARK   75  A    between atoms: _180  and  _183
REMARK   76  A    between atoms: _183  and  _184
REMARK   77  A    between atoms: _184  and  _185
REMARK   78  A    between atoms: _190  and  _192
REMARK   79  A    between atoms: _192  and  _193
REMARK   80  A    between atoms: _192  and  _195
REMARK   81  A    between atoms: _195  and  _196
REMARK   82  A    between atoms: _206  and  _208
REMARK   83  A    between atoms: _208  and  _209
REMARK   84  A    between atoms: _208  and  _211
REMARK   85  A    between atoms: _211  and  _212
REMARK   86  A    between atoms: _212  and  _213
REMARK   87  A    between atoms: _213  and  _215
REMARK   88  A    between atoms: _215  and  MG_372
REMARK   89  A    between atoms: _216  and  _218
REMARK   90  A    between atoms: _218  and  _219
REMARK   91  A    between atoms: _218  and  _221
REMARK   92  A    between atoms: _221  and  _222
REMARK   93  A    between atoms: _222  and  _223
REMARK   94  A    between atoms: _226  and  _228
REMARK   95  A    between atoms: _228  and  _229
REMARK   96  A    between atoms: _228  and  _231
REMARK   97  A    between atoms: _231  and  _232
REMARK   98  A    between atoms: _232  and  _233
REMARK   99  A    between atoms: _238  and  _240
REMARK  100  A    between atoms: _240  and  _241
REMARK  101  A    between atoms: _240  and  _243
REMARK  102  A    between atoms: _243  and  _244
REMARK  103  A    between atoms: _244  and  _245
REMARK  104  A    between atoms: _245  and  _246
REMARK  105  A    between atoms: _246  and  MG_372
REMARK  106  A    between atoms: _248  and  _250
REMARK  107  A    between atoms: _250  and  _251
REMARK  108  A    between atoms: _250  and  _253
REMARK  109  A    between atoms: _253  and  _254
REMARK  110  A    between atoms: _259  and  _261
REMARK  111  A    between atoms: _261  and  _262
REMARK  112  A    between atoms: _261  and  _264
REMARK  113  A    between atoms: _264  and  _265
REMARK  114  A    between atoms: _265  and  _266
REMARK  115  A    between atoms: _268  and  _270
REMARK  116  A    between atoms: _270  and  _271
REMARK  117  A    between atoms: _270  and  _273
REMARK  118  A    between atoms: _273  and  _274
REMARK  119  A    between atoms: _277  and  _279
REMARK  120  A    between atoms: _279  and  _280
REMARK  121  A    between atoms: _279  and  _282
REMARK  122  A    between atoms: _282  and  _283
REMARK  123  A    between atoms: _283  and  _284
REMARK  124  A    between atoms: _284  and  _285
REMARK  125  A    between atoms: _285  and  _286
REMARK  126  A    between atoms: _290  and  _292
REMARK  127  A    between atoms: _292  and  _293
REMARK  128  A    between atoms: _292  and  _295
REMARK  129  A    between atoms: _295  and  _296
REMARK  130  A    between atoms: _298  and  _300
REMARK  131  A    between atoms: _300  and  _301
REMARK  132  A    between atoms: _300  and  _303
REMARK  133  A    between atoms: _303  and  _304
REMARK  134  A    between atoms: _309  and  _311
REMARK  135  A    between atoms: _311  and  _312
REMARK  136  A    between atoms: _311  and  _314
REMARK  137  A    between atoms: _314  and  _315
REMARK  138  A    between atoms: _318  and  _320
REMARK  139  A    between atoms: _320  and  _321
REMARK  140  A    between atoms: _320  and  _323
REMARK  141  A    between atoms: _323  and  _324
REMARK  142  A    between atoms: _324  and  _325
REMARK  143  A    between atoms: _328  and  _330
REMARK  144  A    between atoms: _330  and  _331
REMARK  145  A    between atoms: _330  and  _333
REMARK  146  A    between atoms: _333  and  _334
REMARK  147  A    between atoms: _334  and  _335
REMARK  148  A    between atoms: _335  and  _336
REMARK  149  A    between atoms: _345  and  _347
REMARK  150  A    between atoms: _347  and  _348
REMARK  151  A    between atoms: _347  and  _350
REMARK  152  A    between atoms: _350  and  _351
REMARK  153  A    between atoms: _354  and  _356
REMARK  154  A    between atoms: _356  and  _357
REMARK  155  A    between atoms: _356  and  _359
REMARK  156  A    between atoms: _359  and  _360
REMARK  157  A    between atoms: _363  and  _365
REMARK  158  A    between atoms: _365  and  _366
REMARK  159  A    between atoms: _365  and  _368
REMARK  160  A    between atoms: _368  and  _369
REMARK                            x       y       z     vdW  Elec       q    Type
REMARK                         _______ _______ _______ _____ _____    ______ ____
ROOT
ATOM      1  CA  VAL A   1     -23.914  30.161 -22.257  0.00  0.00    +0.133 C 
ENDROOT
BRANCH   1   2
ATOM      2  CB  VAL A   1     -24.159  28.843 -23.060  0.00  0.00    +0.023 C 
ATOM      3  CG2 VAL A   1     -22.918  28.502 -23.864  0.00  0.00    +0.002 C 
ATOM      4  CG1 VAL A   1     -25.400  28.880 -23.973  0.00  0.00    +0.002 C 
ENDBRANCH   1   2
BRANCH   1   5
ATOM      5  N   VAL A   1     -22.589  30.025 -21.608  0.00  0.00    -0.239 NA
ATOM      6  H   VAL A   1     -22.410  29.136 -21.099  0.00  0.00    +0.142 HD
ENDBRANCH   1   5
BRANCH   1   7
ATOM      7  C   VAL A   1     -25.083  30.340 -21.225  0.00  0.00    +0.224 C 
ATOM      8  O   VAL A   1     -25.439  29.352 -20.627  0.00  0.00    -0.287 OA
ENDBRANCH   1   7
TORSDOF 3
REMARK  Name = ../refined-set-2016/4m6u/4m6u_pocket.pdb
REMARK  160 active torsions:
REMARK  status: ('A' for Active; 'I' for Inactive)
REMARK    1  A    between atoms: _1  and  _3
REMARK    2  A    between atoms: _3  and  _4
REMARK    3  A    between atoms: _3  and  _6
REMARK    4  A    between atoms: _9  and  _11
REMARK    5  A    between atoms: _11  and  _12
REMARK    6  A    between atoms: _11  and  _14
REMARK    7  A    between atoms: _14  and  _15
REMARK    8  A    between atoms: _20  and  _22
REMARK    9  A    between atoms: _22  and  _23
REMARK   10  A    between atoms: _22  and  _25
REMARK   11  A    between atoms: _25  and  _26
REMARK   12  A    between atoms: _29  and  _31
REMARK   13  A    between atoms: _31  and  _32
REMARK   14  A    between atoms: _35  and  _37
REMARK   15  A    between atoms: _37  and  _38
REMARK   16  A    between atoms: _37  and  _40
REMARK   17  A    between atoms: _43  and  _45
REMARK   18  A    between atoms: _45  and  _46
REMARK   19  A    between atoms: _45  and  _48
REMARK   20  A    between atoms: _51  and  _53
REMARK   21  A    between atoms: _53  and  _54
REMARK   22  A    between atoms: _53  and  _56
REMARK   23  A    between atoms: _56  and  _57
REMARK   24  A    between atoms: _63  and  _65
REMARK   25  A    between atoms: _65  and  _66
REMARK   26  A    between atoms: _65  and  _68
REMARK   27  A    between atoms: _68  and  _69
REMARK   28  A    between atoms: _74  and  _75
REMARK   29  A    between atoms: _77  and  _79
REMARK   30  A    between atoms: _79  and  _80
REMARK   31  A    between atoms: _79  and  _82
REMARK   32  A    between atoms: _82  and  _83
REMARK   33  A    between atoms: _88  and  _89
REMARK   34  A    between atoms: _91  and  _93
REMARK   35  A    between atoms: _93  and  _94
REMARK   36  A    between atoms: _93  and  _96
REMARK   37  A    between atoms: _96  and  _97
REMARK   38  A    between atoms: _99  and  _101
REMARK   39  A    between atoms: _101  and  _102
REMARK   40  A    between atoms: _101  and  _104
REMARK   41  A    between atoms: _104  and  _105
REMARK   42  A    between atoms: _110  and  _112
REMARK   43  A    between atoms: _112  and  _113
REMARK   44  A    between atoms: _112  and  _115
REMARK   45  A    between atoms: _115  and  _116
REMARK   46  A    between atoms: _118  and  _120
REMARK   47  A    between atoms: _120  and  _121
REMARK   48  A    between atoms: _120  and  _123
REMARK   49  A    between atoms: _123  and  _124
REMARK   50  A    between atoms: _124  and  _125
REMARK   51  A    between atoms: _125  and  _126
REMARK   52  A    between atoms: _126  and  _127
REMARK   53  A    between atoms: _131  and  _133
REMARK   54  A    between atoms: _133  and  _134
REMARK   55  A    between atoms: _133  and  _136
REMARK   56  A    between atoms: _136  and  _137
REMARK   57  A    between atoms: _137  and  _138
REMARK   58  A    between atoms: _138  and  _139
REMARK   59  A    between atoms: _139  and  _140
REMARK   60  A    between atoms: _144  and  _146
REMARK   61  A    between atoms: _146  and  _147
REMARK   62  A    between atoms: _146  and  _149
REMARK   63  A    between atoms: _149  and  _150
REMARK   64  A    between atoms: _153  and  _155
REMARK   65  A    between atoms: _155  and  _156
REMARK   66  A    between atoms: _155  and  _158
REMARK   67  A    between atoms: _158  and  _159
REMARK   68  A    between atoms: _164  and  _165
REMARK   69  A    between atoms: _167  and  _169
REMARK   70  A    between atoms: _169  and  _170
REMARK   71  A    between atoms: _169  and  _172
REMARK   72  A    between atoms: _172  and  _173
REMARK   73  A    between atoms: _178  and  _180
REMARK   74  A    between atoms: _180  and  _181
REMARK   75  A    between atoms: _180  and  _183
REMARK   76  A    between atoms: _183  and  _184
REMARK   77  A    between atoms: _184  and  _185
REMARK   78  A    between atoms: _190  and  _192
REMARK   79  A    between atoms: _192  and  _193
REMARK   80  A    between atoms: _192  and  _195
REMARK   81  A    between atoms: _195  and  _196
REMARK   82  A    between atoms: _206  and  _208
REMARK   83  A    between atoms: _208  and  _209
REMARK   84  A    between atoms: _208  and  _211
REMARK   85  A    between atoms: _211  and  _212
REMARK   86  A    between atoms: _212  and  _213
REMARK   87  A    between atoms: _213  and  _215
REMARK   88  A    between atoms: _215  and  MG_372
REMARK   89  A    between atoms: _216  and  _218
REMARK   90  A    between atoms: _218  and  _219
REMARK   91  A    between atoms: _218  and  _221
REMARK   92  A    between atoms: _221  and  _222
REMARK   93  A    between atoms: _222  and  _223
REMARK   94  A    between atoms: _226  and  _228
REMARK   95  A    between atoms: _228  and  _229
REMARK   96  A    between atoms: _228  and  _231
REMARK   97  A    between atoms: _231  and  _232
REMARK   98  A    between atoms: _232  and  _233
REMARK   99  A    between atoms: _238  and  _240
REMARK  100  A    between atoms: _240  and  _241
REMARK  101  A    between atoms: _240  and  _243
REMARK  102  A    between atoms: _243  and  _244
REMARK  103  A    between atoms: _244  and  _245
REMARK  104  A    between atoms: _245  and  _246
REMARK  105  A    between atoms: _246  and  MG_372
REMARK  106  A    between atoms: _248  and  _250
REMARK  107  A    between atoms: _250  and  _251
REMARK  108  A    between atoms: _250  and  _253
REMARK  109  A    between atoms: _253  and  _254
REMARK  110  A    between atoms: _259  and  _261
REMARK  111  A    between atoms: _261  and  _262
REMARK  112  A    between atoms: _261  and  _264
REMARK  113  A    between atoms: _264  and  _265
REMARK  114  A    between atoms: _265  and  _266
REMARK  115  A    between atoms: _268  and  _270
REMARK  116  A    between atoms: _270  and  _271
REMARK  117  A    between atoms: _270  and  _273
REMARK  118  A    between atoms: _273  and  _274
REMARK  119  A    between atoms: _277  and  _279
REMARK  120  A    between atoms: _279  and  _280
REMARK  121  A    between atoms: _279  and  _282
REMARK  122  A    between atoms: _282  and  _283
REMARK  123  A    between atoms: _283  and  _284
REMARK  124  A    between atoms: _284  and  _285
REMARK  125  A    between atoms: _285  and  _286
REMARK  126  A    between atoms: _290  and  _292
REMARK  127  A    between atoms: _292  and  _293
REMARK  128  A    between atoms: _292  and  _295
REMARK  129  A    between atoms: _295  and  _296
REMARK  130  A    between atoms: _298  and  _300
REMARK  131  A    between atoms: _300  and  _301
REMARK  132  A    between atoms: _300  and  _303
REMARK  133  A    between atoms: _303  and  _304
REMARK  134  A    between atoms: _309  and  _311
REMARK  135  A    between atoms: _311  and  _312
REMARK  136  A    between atoms: _311  and  _314
REMARK  137  A    between atoms: _314  and  _315
REMARK  138  A    between atoms: _318  and  _320
REMARK  139  A    between atoms: _320  and  _321
REMARK  140  A    between atoms: _320  and  _323
REMARK  141  A    between atoms: _323  and  _324
REMARK  142  A    between atoms: _324  and  _325
REMARK  143  A    between atoms: _328  and  _330
REMARK  144  A    between atoms: _330  and  _331
REMARK  145  A    between atoms: _330  and  _333
REMARK  146  A    between atoms: _333  and  _334
REMARK  147  A    between atoms: _334  and  _335
REMARK  148  A    between atoms: _335  and  _336
REMARK  149  A    between atoms: _345  and  _347
REMARK  150  A    between atoms: _347  and  _348
REMARK  151  A    between atoms: _347  and  _350
REMARK  152  A    between atoms: _350  and  _351
REMARK  153  A    between atoms: _354  and  _356
REMARK  154  A    between atoms: _356  and  _357
REMARK  155  A    between atoms: _356  and  _359
REMARK  156  A    between atoms: _359  and  _360
REMARK  157  A    between atoms: _363  and  _365
REMARK  158  A    between atoms: _365  and  _366
REMARK  159  A    between atoms: _365  and  _368
REMARK  160  A    between atoms: _368  and  _369
REMARK                            x       y       z     vdW  Elec       q    Type
REMARK                         _______ _______ _______ _____ _____    ______ ____
ROOT
ATOM      1  CB  PHE A   1     -28.951  24.887 -30.255  0.00  0.00    +0.051 C 
ENDROOT
BRANCH   1   2
ATOM      2  CG  PHE A   1     -28.039  25.423 -29.129  0.00  0.00    -0.020 A 
ATOM      3  CD2 PHE A   1     -28.291  26.584 -28.428  0.00  0.00    -0.004 A 
ATOM      4  CE2 PHE A   1     -27.471  26.989 -27.388  0.00  0.00    -0.000 A 
ATOM      5  CZ  PHE A   1     -26.314  26.250 -27.043  0.00  0.00    -0.000 A 
ATOM      6  CE1 PHE A   1     -26.044  25.093 -27.740  0.00  0.00    -0.000 A 
ATOM      7  CD1 PHE A   1     -26.885  24.703 -28.778  0.00  0.00    -0.004 A 
ENDBRANCH   1   2
BRANCH   1   8
ATOM      8  CA  PHE A   1     -29.478  25.928 -31.267  0.00  0.00    +0.137 C 
BRANCH   8   9
ATOM      9  N   PHE A   1     -30.245  25.234 -32.314  0.00  0.00    -0.239 NA
ATOM     10  H   PHE A   1     -29.831  24.394 -32.765  0.00  0.00    +0.142 HD
ENDBRANCH   8   9
BRANCH   8  11
ATOM     11  C   PHE A   1     -28.357  26.635 -32.022  0.00  0.00    +0.224 C 
ATOM     12  O   PHE A   1     -27.578  26.000 -32.732  0.00  0.00    -0.287 OA
ENDBRANCH   8  11
ENDBRANCH   1   8
TORSDOF 4
REMARK  Name = ../refined-set-2016/4m6u/4m6u_pocket.pdb
REMARK  160 active torsions:
REMARK  status: ('A' for Active; 'I' for Inactive)
REMARK    1  A    between atoms: _1  and  _3
REMARK    2  A    between atoms: _3  and  _4
REMARK    3  A    between atoms: _3  and  _6
REMARK    4  A    between atoms: _9  and  _11
REMARK    5  A    between atoms: _11  and  _12
REMARK    6  A    between atoms: _11  and  _14
REMARK    7  A    between atoms: _14  and  _15
REMARK    8  A    between atoms: _20  and  _22
REMARK    9  A    between atoms: _22  and  _23
REMARK   10  A    between atoms: _22  and  _25
REMARK   11  A    between atoms: _25  and  _26
REMARK   12  A    between atoms: _29  and  _31
REMARK   13  A    between atoms: _31  and  _32
REMARK   14  A    between atoms: _35  and  _37
REMARK   15  A    between atoms: _37  and  _38
REMARK   16  A    between atoms: _37  and  _40
REMARK   17  A    between atoms: _43  and  _45
REMARK   18  A    between atoms: _45  and  _46
REMARK   19  A    between atoms: _45  and  _48
REMARK   20  A    between atoms: _51  and  _53
REMARK   21  A    between atoms: _53  and  _54
REMARK   22  A    between atoms: _53  and  _56
REMARK   23  A    between atoms: _56  and  _57
REMARK   24  A    between atoms: _63  and  _65
REMARK   25  A    between atoms: _65  and  _66
REMARK   26  A    between atoms: _65  and  _68
REMARK   27  A    between atoms: _68  and  _69
REMARK   28  A    between atoms: _74  and  _75
REMARK   29  A    between atoms: _77  and  _79
REMARK   30  A    between atoms: _79  and  _80
REMARK   31  A    between atoms: _79  and  _82
REMARK   32  A    between atoms: _82  and  _83
REMARK   33  A    between atoms: _88  and  _89
REMARK   34  A    between atoms: _91  and  _93
REMARK   35  A    between atoms: _93  and  _94
REMARK   36  A    between atoms: _93  and  _96
REMARK   37  A    between atoms: _96  and  _97
REMARK   38  A    between atoms: _99  and  _101
REMARK   39  A    between atoms: _101  and  _102
REMARK   40  A    between atoms: _101  and  _104
REMARK   41  A    between atoms: _104  and  _105
REMARK   42  A    between atoms: _110  and  _112
REMARK   43  A    between atoms: _112  and  _113
REMARK   44  A    between atoms: _112  and  _115
REMARK   45  A    between atoms: _115  and  _116
REMARK   46  A    between atoms: _118  and  _120
REMARK   47  A    between atoms: _120  and  _121
REMARK   48  A    between atoms: _120  and  _123
REMARK   49  A    between atoms: _123  and  _124
REMARK   50  A    between atoms: _124  and  _125
REMARK   51  A    between atoms: _125  and  _126
REMARK   52  A    between atoms: _126  and  _127
REMARK   53  A    between atoms: _131  and  _133
REMARK   54  A    between atoms: _133  and  _134
REMARK   55  A    between atoms: _133  and  _136
REMARK   56  A    between atoms: _136  and  _137
REMARK   57  A    between atoms: _137  and  _138
REMARK   58  A    between atoms: _138  and  _139
REMARK   59  A    between atoms: _139  and  _140
REMARK   60  A    between atoms: _144  and  _146
REMARK   61  A    between atoms: _146  and  _147
REMARK   62  A    between atoms: _146  and  _149
REMARK   63  A    between atoms: _149  and  _150
REMARK   64  A    between atoms: _153  and  _155
REMARK   65  A    between atoms: _155  and  _156
REMARK   66  A    between atoms: _155  and  _158
REMARK   67  A    between atoms: _158  and  _159
REMARK   68  A    between atoms: _164  and  _165
REMARK   69  A    between atoms: _167  and  _169
REMARK   70  A    between atoms: _169  and  _170
REMARK   71  A    between atoms: _169  and  _172
REMARK   72  A    between atoms: _172  and  _173
REMARK   73  A    between atoms: _178  and  _180
REMARK   74  A    between atoms: _180  and  _181
REMARK   75  A    between atoms: _180  and  _183
REMARK   76  A    between atoms: _183  and  _184
REMARK   77  A    between atoms: _184  and  _185
REMARK   78  A    between atoms: _190  and  _192
REMARK   79  A    between atoms: _192  and  _193
REMARK   80  A    between atoms: _192  and  _195
REMARK   81  A    between atoms: _195  and  _196
REMARK   82  A    between atoms: _206  and  _208
REMARK   83  A    between atoms: _208  and  _209
REMARK   84  A    between atoms: _208  and  _211
REMARK   85  A    between atoms: _211  and  _212
REMARK   86  A    between atoms: _212  and  _213
REMARK   87  A    between atoms: _213  and  _215
REMARK   88  A    between atoms: _215  and  MG_372
REMARK   89  A    between atoms: _216  and  _218
REMARK   90  A    between atoms: _218  and  _219
REMARK   91  A    between atoms: _218  and  _221
REMARK   92  A    between atoms: _221  and  _222
REMARK   93  A    between atoms: _222  and  _223
REMARK   94  A    between atoms: _226  and  _228
REMARK   95  A    between atoms: _228  and  _229
REMARK   96  A    between atoms: _228  and  _231
REMARK   97  A    between atoms: _231  and  _232
REMARK   98  A    between atoms: _232  and  _233
REMARK   99  A    between atoms: _238  and  _240
REMARK  100  A    between atoms: _240  and  _241
REMARK  101  A    between atoms: _240  and  _243
REMARK  102  A    between atoms: _243  and  _244
REMARK  103  A    between atoms: _244  and  _245
REMARK  104  A    between atoms: _245  and  _246
REMARK  105  A    between atoms: _246  and  MG_372
REMARK  106  A    between atoms: _248  and  _250
REMARK  107  A    between atoms: _250  and  _251
REMARK  108  A    between atoms: _250  and  _253
REMARK  109  A    between atoms: _253  and  _254
REMARK  110  A    between atoms: _259  and  _261
REMARK  111  A    between atoms: _261  and  _262
REMARK  112  A    between atoms: _261  and  _264
REMARK  113  A    between atoms: _264  and  _265
REMARK  114  A    between atoms: _265  and  _266
REMARK  115  A    between atoms: _268  and  _270
REMARK  116  A    between atoms: _270  and  _271
REMARK  117  A    between atoms: _270  and  _273
REMARK  118  A    between atoms: _273  and  _274
REMARK  119  A    between atoms: _277  and  _279
REMARK  120  A    between atoms: _279  and  _280
REMARK  121  A    between atoms: _279  and  _282
REMARK  122  A    between atoms: _282  and  _283
REMARK  123  A    between atoms: _283  and  _284
REMARK  124  A    between atoms: _284  and  _285
REMARK  125  A    between atoms: _285  and  _286
REMARK  126  A    between atoms: _290  and  _292
REMARK  127  A    between atoms: _292  and  _293
REMARK  128  A    between atoms: _292  and  _295
REMARK  129  A    between atoms: _295  and  _296
REMARK  130  A    between atoms: _298  and  _300
REMARK  131  A    between atoms: _300  and  _301
REMARK  132  A    between atoms: _300  and  _303
REMARK  133  A    between atoms: _303  and  _304
REMARK  134  A    between atoms: _309  and  _311
REMARK  135  A    between atoms: _311  and  _312
REMARK  136  A    between atoms: _311  and  _314
REMARK  137  A    between atoms: _314  and  _315
REMARK  138  A    between atoms: _318  and  _320
REMARK  139  A    between atoms: _320  and  _321
REMARK  140  A    between atoms: _320  and  _323
REMARK  141  A    between atoms: _323  and  _324
REMARK  142  A    between atoms: _324  and  _325
REMARK  143  A    between atoms: _328  and  _330
REMARK  144  A    between atoms: _330  and  _331
REMARK  145  A    between atoms: _330  and  _333
REMARK  146  A    between atoms: _333  and  _334
REMARK  147  A    between atoms: _334  and  _335
REMARK  148  A    between atoms: _335  and  _336
REMARK  149  A    between atoms: _345  and  _347
REMARK  150  A    between atoms: _347  and  _348
REMARK  151  A    between atoms: _347  and  _350
REMARK  152  A    between atoms: _350  and  _351
REMARK  153  A    between atoms: _354  and  _356
REMARK  154  A    between atoms: _356  and  _357
REMARK  155  A    between atoms: _356  and  _359
REMARK  156  A    between atoms: _359  and  _360
REMARK  157  A    between atoms: _363  and  _365
REMARK  158  A    between atoms: _365  and  _366
REMARK  159  A    between atoms: _365  and  _368
REMARK  160  A    between atoms: _368  and  _369
REMARK                            x       y       z     vdW  Elec       q    Type
REMARK                         _______ _______ _______ _____ _____    ______ ____
ROOT
ATOM      1  CG  TYR A   1     -23.673  26.409 -30.562  0.00  0.00    -0.020 A 
ATOM      2  CD2 TYR A   1     -23.358  25.365 -29.705  0.00  0.00    -0.001 A 
ATOM      3  CE2 TYR A   1     -23.613  24.050 -30.061  0.00  0.00    +0.036 A 
ATOM      4  CZ  TYR A   1     -24.189  23.785 -31.283  0.00  0.00    +0.134 A 
ATOM      5  CE1 TYR A   1     -24.488  24.806 -32.147  0.00  0.00    +0.036 A 
ATOM      6  CD1 TYR A   1     -24.216  26.127 -31.783  0.00  0.00    -0.001 A 
ENDROOT
BRANCH   4   7
ATOM      7  OH  TYR A   1     -24.513  22.470 -31.655  0.00  0.00    -0.506 OA
ATOM      8  HH  TYR A   1     -24.239  21.848 -30.936  0.00  0.00    +0.292 HD
ENDBRANCH   4   7
BRANCH   1   9
ATOM      9  CB  TYR A   1     -23.427  27.828 -30.144  0.00  0.00    +0.051 C 
BRANCH   9  10
ATOM     10  CA  TYR A   1     -24.684  28.442 -29.508  0.00  0.00    +0.137 C 
BRANCH  10  11
ATOM     11  N   TYR A   1     -25.825  28.429 -30.429  0.00  0.00    -0.239 NA
ATOM     12  H   TYR A   1     -26.689  27.967 -30.079  0.00  0.00    +0.142 HD
ENDBRANCH  10  11
BRANCH  10  13
ATOM     13  C   TYR A   1     -24.361  29.797 -28.889  0.00  0.00    +0.224 C 
ATOM     14  O   TYR A   1     -24.246  29.928 -27.653  0.00  0.00    -0.287 OA
ENDBRANCH  10  13
ENDBRANCH   9  10
ENDBRANCH   1   9
TORSDOF 5
REMARK  Name = ../refined-set-2016/4m6u/4m6u_pocket.pdb
REMARK  160 active torsions:
REMARK  status: ('A' for Active; 'I' for Inactive)
REMARK    1  A    between atoms: _1  and  _3
REMARK    2  A    between atoms: _3  and  _4
REMARK    3  A    between atoms: _3  and  _6
REMARK    4  A    between atoms: _9  and  _11
REMARK    5  A    between atoms: _11  and  _12
REMARK    6  A    between atoms: _11  and  _14
REMARK    7  A    between atoms: _14  and  _15
REMARK    8  A    between atoms: _20  and  _22
REMARK    9  A    between atoms: _22  and  _23
REMARK   10  A    between atoms: _22  and  _25
REMARK   11  A    between atoms: _25  and  _26
REMARK   12  A    between atoms: _29  and  _31
REMARK   13  A    between atoms: _31  and  _32
REMARK   14  A    between atoms: _35  and  _37
REMARK   15  A    between atoms: _37  and  _38
REMARK   16  A    between atoms: _37  and  _40
REMARK   17  A    between atoms: _43  and  _45
REMARK   18  A    between atoms: _45  and  _46
REMARK   19  A    between atoms: _45  and  _48
REMARK   20  A    between atoms: _51  and  _53
REMARK   21  A    between atoms: _53  and  _54
REMARK   22  A    between atoms: _53  and  _56
REMARK   23  A    between atoms: _56  and  _57
REMARK   24  A    between atoms: _63  and  _65
REMARK   25  A    between atoms: _65  and  _66
REMARK   26  A    between atoms: _65  and  _68
REMARK   27  A    between atoms: _68  and  _69
REMARK   28  A    between atoms: _74  and  _75
REMARK   29  A    between atoms: _77  and  _79
REMARK   30  A    between atoms: _79  and  _80
REMARK   31  A    between atoms: _79  and  _82
REMARK   32  A    between atoms: _82  and  _83
REMARK   33  A    between atoms: _88  and  _89
REMARK   34  A    between atoms: _91  and  _93
REMARK   35  A    between atoms: _93  and  _94
REMARK   36  A    between atoms: _93  and  _96
REMARK   37  A    between atoms: _96  and  _97
REMARK   38  A    between atoms: _99  and  _101
REMARK   39  A    between atoms: _101  and  _102
REMARK   40  A    between atoms: _101  and  _104
REMARK   41  A    between atoms: _104  and  _105
REMARK   42  A    between atoms: _110  and  _112
REMARK   43  A    between atoms: _112  and  _113
REMARK   44  A    between atoms: _112  and  _115
REMARK   45  A    between atoms: _115  and  _116
REMARK   46  A    between atoms: _118  and  _120
REMARK   47  A    between atoms: _120  and  _121
REMARK   48  A    between atoms: _120  and  _123
REMARK   49  A    between atoms: _123  and  _124
REMARK   50  A    between atoms: _124  and  _125
REMARK   51  A    between atoms: _125  and  _126
REMARK   52  A    between atoms: _126  and  _127
REMARK   53  A    between atoms: _131  and  _133
REMARK   54  A    between atoms: _133  and  _134
REMARK   55  A    between atoms: _133  and  _136
REMARK   56  A    between atoms: _136  and  _137
REMARK   57  A    between atoms: _137  and  _138
REMARK   58  A    between atoms: _138  and  _139
REMARK   59  A    between atoms: _139  and  _140
REMARK   60  A    between atoms: _144  and  _146
REMARK   61  A    between atoms: _146  and  _147
REMARK   62  A    between atoms: _146  and  _149
REMARK   63  A    between atoms: _149  and  _150
REMARK   64  A    between atoms: _153  and  _155
REMARK   65  A    between atoms: _155  and  _156
REMARK   66  A    between atoms: _155  and  _158
REMARK   67  A    between atoms: _158  and  _159
REMARK   68  A    between atoms: _164  and  _165
REMARK   69  A    between atoms: _167  and  _169
REMARK   70  A    between atoms: _169  and  _170
REMARK   71  A    between atoms: _169  and  _172
REMARK   72  A    between atoms: _172  and  _173
REMARK   73  A    between atoms: _178  and  _180
REMARK   74  A    between atoms: _180  and  _181
REMARK   75  A    between atoms: _180  and  _183
REMARK   76  A    between atoms: _183  and  _184
REMARK   77  A    between atoms: _184  and  _185
REMARK   78  A    between atoms: _190  and  _192
REMARK   79  A    between atoms: _192  and  _193
REMARK   80  A    between atoms: _192  and  _195
REMARK   81  A    between atoms: _195  and  _196
REMARK   82  A    between atoms: _206  and  _208
REMARK   83  A    between atoms: _208  and  _209
REMARK   84  A    between atoms: _208  and  _211
REMARK   85  A    between atoms: _211  and  _212
REMARK   86  A    between atoms: _212  and  _213
REMARK   87  A    between atoms: _213  and  _215
REMARK   88  A    between atoms: _215  and  MG_372
REMARK   89  A    between atoms: _216  and  _218
REMARK   90  A    between atoms: _218  and  _219
REMARK   91  A    between atoms: _218  and  _221
REMARK   92  A    between atoms: _221  and  _222
REMARK   93  A    between atoms: _222  and  _223
REMARK   94  A    between atoms: _226  and  _228
REMARK   95  A    between atoms: _228  and  _229
REMARK   96  A    between atoms: _228  and  _231
REMARK   97  A    between atoms: _231  and  _232
REMARK   98  A    between atoms: _232  and  _233
REMARK   99  A    between atoms: _238  and  _240
REMARK  100  A    between atoms: _240  and  _241
REMARK  101  A    between atoms: _240  and  _243
REMARK  102  A    between atoms: _243  and  _244
REMARK  103  A    between atoms: _244  and  _245
REMARK  104  A    between atoms: _245  and  _246
REMARK  105  A    between atoms: _246  and  MG_372
REMARK  106  A    between atoms: _248  and  _250
REMARK  107  A    between atoms: _250  and  _251
REMARK  108  A    between atoms: _250  and  _253
REMARK  109  A    between atoms: _253  and  _254
REMARK  110  A    between atoms: _259  and  _261
REMARK  111  A    between atoms: _261  and  _262
REMARK  112  A    between atoms: _261  and  _264
REMARK  113  A    between atoms: _264  and  _265
REMARK  114  A    between atoms: _265  and  _266
REMARK  115  A    between atoms: _268  and  _270
REMARK  116  A    between atoms: _270  and  _271
REMARK  117  A    between atoms: _270  and  _273
REMARK  118  A    between atoms: _273  and  _274
REMARK  119  A    between atoms: _277  and  _279
REMARK  120  A    between atoms: _279  and  _280
REMARK  121  A    between atoms: _279  and  _282
REMARK  122  A    between atoms: _282  and  _283
REMARK  123  A    between atoms: _283  and  _284
REMARK  124  A    between atoms: _284  and  _285
REMARK  125  A    between atoms: _285  and  _286
REMARK  126  A    between atoms: _290  and  _292
REMARK  127  A    between atoms: _292  and  _293
REMARK  128  A    between atoms: _292  and  _295
REMARK  129  A    between atoms: _295  and  _296
REMARK  130  A    between atoms: _298  and  _300
REMARK  131  A    between atoms: _300  and  _301
REMARK  132  A    between atoms: _300  and  _303
REMARK  133  A    between atoms: _303  and  _304
REMARK  134  A    between atoms: _309  and  _311
REMARK  135  A    between atoms: _311  and  _312
REMARK  136  A    between atoms: _311  and  _314
REMARK  137  A    between atoms: _314  and  _315
REMARK  138  A    between atoms: _318  and  _320
REMARK  139  A    between atoms: _320  and  _321
REMARK  140  A    between atoms: _320  and  _323
REMARK  141  A    between atoms: _323  and  _324
REMARK  142  A    between atoms: _324  and  _325
REMARK  143  A    between atoms: _328  and  _330
REMARK  144  A    between atoms: _330  and  _331
REMARK  145  A    between atoms: _330  and  _333
REMARK  146  A    between atoms: _333  and  _334
REMARK  147  A    between atoms: _334  and  _335
REMARK  148  A    between atoms: _335  and  _336
REMARK  149  A    between atoms: _345  and  _347
REMARK  150  A    between atoms: _347  and  _348
REMARK  151  A    between atoms: _347  and  _350
REMARK  152  A    between atoms: _350  and  _351
REMARK  153  A    between atoms: _354  and  _356
REMARK  154  A    between atoms: _356  and  _357
REMARK  155  A    between atoms: _356  and  _359
REMARK  156  A    between atoms: _359  and  _360
REMARK  157  A    between atoms: _363  and  _365
REMARK  158  A    between atoms: _365  and  _366
REMARK  159  A    between atoms: _365  and  _368
REMARK  160  A    between atoms: _368  and  _369
REMARK                            x       y       z     vdW  Elec       q    Type
REMARK                         _______ _______ _______ _____ _____    ______ ____
ROOT
ATOM      1  CG  TYR A   1     -25.966  12.068 -18.700  0.00  0.00    -0.020 A 
ATOM      2  CD2 TYR A   1     -25.433  13.373 -18.717  0.00  0.00    -0.001 A 
ATOM      3  CE2 TYR A   1     -24.899  13.939 -19.861  0.00  0.00    +0.036 A 
ATOM      4  CZ  TYR A   1     -24.840  13.177 -21.033  0.00  0.00    +0.134 A 
ATOM      5  CE1 TYR A   1     -25.360  11.910 -21.062  0.00  0.00    +0.036 A 
ATOM      6  CD1 TYR A   1     -25.899  11.326 -19.880  0.00  0.00    -0.001 A 
ENDROOT
BRANCH   4   7
ATOM      7  OH  TYR A   1     -24.260  13.731 -22.143  0.00  0.00    -0.506 OA
ATOM      8  HH  TYR A   1     -23.491  13.174 -22.425  0.00  0.00    +0.292 HD
ENDBRANCH   4   7
BRANCH   1   9
ATOM      9  CB  TYR A   1     -26.531  11.489 -17.449  0.00  0.00    +0.051 C 
BRANCH   9  10
ATOM     10  CA  TYR A   1     -28.049  11.701 -17.198  0.00  0.00    +0.137 C 
BRANCH  10  11
ATOM     11  N   TYR A   1     -28.851  11.008 -18.175  0.00  0.00    -0.239 NA
ATOM     12  H   TYR A   1     -28.642  11.168 -19.181  0.00  0.00    +0.142 HD
ENDBRANCH  10  11
BRANCH  10  13
ATOM     13  C   TYR A   1     -28.364  13.143 -17.177  0.00  0.00    +0.224 C 
ATOM     14  O   TYR A   1     -28.711  13.754 -18.188  0.00  0.00    -0.287 OA
ENDBRANCH  10  13
ENDBRANCH   9  10
ENDBRANCH   1   9
TORSDOF 5
REMARK  Name = ../refined-set-2016/4m6u/4m6u_pocket.pdb
REMARK  160 active torsions:
REMARK  status: ('A' for Active; 'I' for Inactive)
REMARK    1  A    between atoms: _1  and  _3
REMARK    2  A    between atoms: _3  and  _4
REMARK    3  A    between atoms: _3  and  _6
REMARK    4  A    between atoms: _9  and  _11
REMARK    5  A    between atoms: _11  and  _12
REMARK    6  A    between atoms: _11  and  _14
REMARK    7  A    between atoms: _14  and  _15
REMARK    8  A    between atoms: _20  and  _22
REMARK    9  A    between atoms: _22  and  _23
REMARK   10  A    between atoms: _22  and  _25
REMARK   11  A    between atoms: _25  and  _26
REMARK   12  A    between atoms: _29  and  _31
REMARK   13  A    between atoms: _31  and  _32
REMARK   14  A    between atoms: _35  and  _37
REMARK   15  A    between atoms: _37  and  _38
REMARK   16  A    between atoms: _37  and  _40
REMARK   17  A    between atoms: _43  and  _45
REMARK   18  A    between atoms: _45  and  _46
REMARK   19  A    between atoms: _45  and  _48
REMARK   20  A    between atoms: _51  and  _53
REMARK   21  A    between atoms: _53  and  _54
REMARK   22  A    between atoms: _53  and  _56
REMARK   23  A    between atoms: _56  and  _57
REMARK   24  A    between atoms: _63  and  _65
REMARK   25  A    between atoms: _65  and  _66
REMARK   26  A    between atoms: _65  and  _68
REMARK   27  A    between atoms: _68  and  _69
REMARK   28  A    between atoms: _74  and  _75
REMARK   29  A    between atoms: _77  and  _79
REMARK   30  A    between atoms: _79  and  _80
REMARK   31  A    between atoms: _79  and  _82
REMARK   32  A    between atoms: _82  and  _83
REMARK   33  A    between atoms: _88  and  _89
REMARK   34  A    between atoms: _91  and  _93
REMARK   35  A    between atoms: _93  and  _94
REMARK   36  A    between atoms: _93  and  _96
REMARK   37  A    between atoms: _96  and  _97
REMARK   38  A    between atoms: _99  and  _101
REMARK   39  A    between atoms: _101  and  _102
REMARK   40  A    between atoms: _101  and  _104
REMARK   41  A    between atoms: _104  and  _105
REMARK   42  A    between atoms: _110  and  _112
REMARK   43  A    between atoms: _112  and  _113
REMARK   44  A    between atoms: _112  and  _115
REMARK   45  A    between atoms: _115  and  _116
REMARK   46  A    between atoms: _118  and  _120
REMARK   47  A    between atoms: _120  and  _121
REMARK   48  A    between atoms: _120  and  _123
REMARK   49  A    between atoms: _123  and  _124
REMARK   50  A    between atoms: _124  and  _125
REMARK   51  A    between atoms: _125  and  _126
REMARK   52  A    between atoms: _126  and  _127
REMARK   53  A    between atoms: _131  and  _133
REMARK   54  A    between atoms: _133  and  _134
REMARK   55  A    between atoms: _133  and  _136
REMARK   56  A    between atoms: _136  and  _137
REMARK   57  A    between atoms: _137  and  _138
REMARK   58  A    between atoms: _138  and  _139
REMARK   59  A    between atoms: _139  and  _140
REMARK   60  A    between atoms: _144  and  _146
REMARK   61  A    between atoms: _146  and  _147
REMARK   62  A    between atoms: _146  and  _149
REMARK   63  A    between atoms: _149  and  _150
REMARK   64  A    between atoms: _153  and  _155
REMARK   65  A    between atoms: _155  and  _156
REMARK   66  A    between atoms: _155  and  _158
REMARK   67  A    between atoms: _158  and  _159
REMARK   68  A    between atoms: _164  and  _165
REMARK   69  A    between atoms: _167  and  _169
REMARK   70  A    between atoms: _169  and  _170
REMARK   71  A    between atoms: _169  and  _172
REMARK   72  A    between atoms: _172  and  _173
REMARK   73  A    between atoms: _178  and  _180
REMARK   74  A    between atoms: _180  and  _181
REMARK   75  A    between atoms: _180  and  _183
REMARK   76  A    between atoms: _183  and  _184
REMARK   77  A    between atoms: _184  and  _185
REMARK   78  A    between atoms: _190  and  _192
REMARK   79  A    between atoms: _192  and  _193
REMARK   80  A    between atoms: _192  and  _195
REMARK   81  A    between atoms: _195  and  _196
REMARK   82  A    between atoms: _206  and  _208
REMARK   83  A    between atoms: _208  and  _209
REMARK   84  A    between atoms: _208  and  _211
REMARK   85  A    between atoms: _211  and  _212
REMARK   86  A    between atoms: _212  and  _213
REMARK   87  A    between atoms: _213  and  _215
REMARK   88  A    between atoms: _215  and  MG_372
REMARK   89  A    between atoms: _216  and  _218
REMARK   90  A    between atoms: _218  and  _219
REMARK   91  A    between atoms: _218  and  _221
REMARK   92  A    between atoms: _221  and  _222
REMARK   93  A    between atoms: _222  and  _223
REMARK   94  A    between atoms: _226  and  _228
REMARK   95  A    between atoms: _228  and  _229
REMARK   96  A    between atoms: _228  and  _231
REMARK   97  A    between atoms: _231  and  _232
REMARK   98  A    between atoms: _232  and  _233
REMARK   99  A    between atoms: _238  and  _240
REMARK  100  A    between atoms: _240  and  _241
REMARK  101  A    between atoms: _240  and  _243
REMARK  102  A    between atoms: _243  and  _244
REMARK  103  A    between atoms: _244  and  _245
REMARK  104  A    between atoms: _245  and  _246
REMARK  105  A    between atoms: _246  and  MG_372
REMARK  106  A    between atoms: _248  and  _250
REMARK  107  A    between atoms: _250  and  _251
REMARK  108  A    between atoms: _250  and  _253
REMARK  109  A    between atoms: _253  and  _254
REMARK  110  A    between atoms: _259  and  _261
REMARK  111  A    between atoms: _261  and  _262
REMARK  112  A    between atoms: _261  and  _264
REMARK  113  A    between atoms: _264  and  _265
REMARK  114  A    between atoms: _265  and  _266
REMARK  115  A    between atoms: _268  and  _270
REMARK  116  A    between atoms: _270  and  _271
REMARK  117  A    between atoms: _270  and  _273
REMARK  118  A    between atoms: _273  and  _274
REMARK  119  A    between atoms: _277  and  _279
REMARK  120  A    between atoms: _279  and  _280
REMARK  121  A    between atoms: _279  and  _282
REMARK  122  A    between atoms: _282  and  _283
REMARK  123  A    between atoms: _283  and  _284
REMARK  124  A    between atoms: _284  and  _285
REMARK  125  A    between atoms: _285  and  _286
REMARK  126  A    between atoms: _290  and  _292
REMARK  127  A    between atoms: _292  and  _293
REMARK  128  A    between atoms: _292  and  _295
REMARK  129  A    between atoms: _295  and  _296
REMARK  130  A    between atoms: _298  and  _300
REMARK  131  A    between atoms: _300  and  _301
REMARK  132  A    between atoms: _300  and  _303
REMARK  133  A    between atoms: _303  and  _304
REMARK  134  A    between atoms: _309  and  _311
REMARK  135  A    between atoms: _311  and  _312
REMARK  136  A    between atoms: _311  and  _314
REMARK  137  A    between atoms: _314  and  _315
REMARK  138  A    between atoms: _318  and  _320
REMARK  139  A    between atoms: _320  and  _321
REMARK  140  A    between atoms: _320  and  _323
REMARK  141  A    between atoms: _323  and  _324
REMARK  142  A    between atoms: _324  and  _325
REMARK  143  A    between atoms: _328  and  _330
REMARK  144  A    between atoms: _330  and  _331
REMARK  145  A    between atoms: _330  and  _333
REMARK  146  A    between atoms: _333  and  _334
REMARK  147  A    between atoms: _334  and  _335
REMARK  148  A    between atoms: _335  and  _336
REMARK  149  A    between atoms: _345  and  _347
REMARK  150  A    between atoms: _347  and  _348
REMARK  151  A    between atoms: _347  and  _350
REMARK  152  A    between atoms: _350  and  _351
REMARK  153  A    between atoms: _354  and  _356
REMARK  154  A    between atoms: _356  and  _357
REMARK  155  A    between atoms: _356  and  _359
REMARK  156  A    between atoms: _359  and  _360
REMARK  157  A    between atoms: _363  and  _365
REMARK  158  A    between atoms: _365  and  _366
REMARK  159  A    between atoms: _365  and  _368
REMARK  160  A    between atoms: _368  and  _369
REMARK                            x       y       z     vdW  Elec       q    Type
REMARK                         _______ _______ _______ _____ _____    ______ ____
ROOT
ATOM      1  CA  HIS A   2     -24.631  20.340 -15.333  0.00  0.00    +0.155 C 
ENDROOT
BRANCH   1   3
ATOM      2  C   SER A   1     -26.038  18.961 -16.864  0.00  0.00    +0.241 C 
ATOM      3  N   HIS A   2     -24.944  19.125 -16.113  0.00  0.00    -0.297 N 
ATOM      4  H   HIS A   2     -24.263  18.340 -16.075  0.00  0.00    +0.150 HD
ATOM      5  O   SER A   1     -26.917  19.850 -17.019  0.00  0.00    -0.274 OA
BRANCH   2   6
ATOM      6  CA  SER A   1     -26.150  17.610 -17.530  0.00  0.00    +0.174 C 
BRANCH   6   7
ATOM      7  N   SER A   1     -27.327  16.905 -17.072  0.00  0.00    -0.236 NA
ATOM      8  H   SER A   1     -28.248  17.134 -17.497  0.00  0.00    +0.142 HD
ENDBRANCH   6   7
BRANCH   6   9
ATOM      9  CB  SER A   1     -26.198  17.720 -19.052  0.00  0.00    +0.163 C 
BRANCH   9  10
ATOM     10  OG  SER A   1     -24.941  18.077 -19.546  0.00  0.00    -0.380 OA
ATOM     11  H   SER A   1     -24.983  18.146 -20.533  0.00  0.00    +0.211 HD
ENDBRANCH   9  10
ENDBRANCH   6   9
ENDBRANCH   2   6
ENDBRANCH   1   3
BRANCH   1  12
ATOM     12  C   HIS A   2     -23.500  21.126 -15.942  0.00  0.00    +0.241 C 
ATOM     13  N   SER A   3     -22.835  21.965 -15.169  0.00  0.00    -0.296 N 
ATOM     14  H   SER A   3     -23.002  21.981 -14.143  0.00  0.00    +0.150 HD
ATOM     15  O   HIS A   2     -23.309  21.055 -17.179  0.00  0.00    -0.273 OA
BRANCH  13  16
ATOM     16  CA  SER A   3     -21.855  22.876 -15.778  0.00  0.00    +0.166 C 
BRANCH  16  17
ATOM     17  CB  SER A   3     -20.609  23.081 -14.964  0.00  0.00    +0.229 C 
ATOM     18  OG  SER A   3     -20.325  22.299 -14.089  0.00  0.00    -0.286 OA
ENDBRANCH  16  17
BRANCH  16  19
ATOM     19  C   SER A   3     -22.479  24.160 -16.344  0.00  0.00    +0.165 C 
BRANCH  19  20
ATOM     20  O   SER A   3     -23.029  25.029 -15.425  0.00  0.00    -0.380 OA
ATOM     21  H   SER A   3     -22.328  25.323 -14.790  0.00  0.00    +0.211 HD
ENDBRANCH  19  20
ENDBRANCH  16  19
ENDBRANCH  13  16
ENDBRANCH   1  12
BRANCH   1  22
ATOM     22  CB  HIS A   2     -24.418  19.952 -13.845  0.00  0.00    +0.076 C 
BRANCH  22  23
ATOM     23  CG  HIS A   2     -25.568  19.207 -13.276  0.00  0.00    +0.082 A 
ATOM     24  ND1 HIS A   2     -25.440  18.291 -12.272  0.00  0.00    -0.227 NA
ATOM     25  CE1 HIS A   2     -26.619  17.795 -11.967  0.00  0.00    +0.199 A 
ATOM     26  NE2 HIS A   2     -27.521  18.336 -12.764  0.00  0.00    -0.221 NA
ATOM     27  CD2 HIS A   2     -26.896  19.225 -13.595  0.00  0.00    +0.115 A 
ENDBRANCH  22  23
ENDBRANCH   1  22
TORSDOF 12
REMARK  Name = ../refined-set-2016/4m6u/4m6u_pocket.pdb
REMARK  160 active torsions:
REMARK  status: ('A' for Active; 'I' for Inactive)
REMARK    1  A    between atoms: _1  and  _3
REMARK    2  A    between atoms: _3  and  _4
REMARK    3  A    between atoms: _3  and  _6
REMARK    4  A    between atoms: _9  and  _11
REMARK    5  A    between atoms: _11  and  _12
REMARK    6  A    between atoms: _11  and  _14
REMARK    7  A    between atoms: _14  and  _15
REMARK    8  A    between atoms: _20  and  _22
REMARK    9  A    between atoms: _22  and  _23
REMARK   10  A    between atoms: _22  and  _25
REMARK   11  A    between atoms: _25  and  _26
REMARK   12  A    between atoms: _29  and  _31
REMARK   13  A    between atoms: _31  and  _32
REMARK   14  A    between atoms: _35  and  _37
REMARK   15  A    between atoms: _37  and  _38
REMARK   16  A    between atoms: _37  and  _40
REMARK   17  A    between atoms: _43  and  _45
REMARK   18  A    between atoms: _45  and  _46
REMARK   19  A    between atoms: _45  and  _48
REMARK   20  A    between atoms: _51  and  _53
REMARK   21  A    between atoms: _53  and  _54
REMARK   22  A    between atoms: _53  and  _56
REMARK   23  A    between atoms: _56  and  _57
REMARK   24  A    between atoms: _63  and  _65
REMARK   25  A    between atoms: _65  and  _66
REMARK   26  A    between atoms: _65  and  _68
REMARK   27  A    between atoms: _68  and  _69
REMARK   28  A    between atoms: _74  and  _75
REMARK   29  A    between atoms: _77  and  _79
REMARK   30  A    between atoms: _79  and  _80
REMARK   31  A    between atoms: _79  and  _82
REMARK   32  A    between atoms: _82  and  _83
REMARK   33  A    between atoms: _88  and  _89
REMARK   34  A    between atoms: _91  and  _93
REMARK   35  A    between atoms: _93  and  _94
REMARK   36  A    between atoms: _93  and  _96
REMARK   37  A    between atoms: _96  and  _97
REMARK   38  A    between atoms: _99  and  _101
REMARK   39  A    between atoms: _101  and  _102
REMARK   40  A    between atoms: _101  and  _104
REMARK   41  A    between atoms: _104  and  _105
REMARK   42  A    between atoms: _110  and  _112
REMARK   43  A    between atoms: _112  and  _113
REMARK   44  A    between atoms: _112  and  _115
REMARK   45  A    between atoms: _115  and  _116
REMARK   46  A    between atoms: _118  and  _120
REMARK   47  A    between atoms: _120  and  _121
REMARK   48  A    between atoms: _120  and  _123
REMARK   49  A    between atoms: _123  and  _124
REMARK   50  A    between atoms: _124  and  _125
REMARK   51  A    between atoms: _125  and  _126
REMARK   52  A    between atoms: _126  and  _127
REMARK   53  A    between atoms: _131  and  _133
REMARK   54  A    between atoms: _133  and  _134
REMARK   55  A    between atoms: _133  and  _136
REMARK   56  A    between atoms: _136  and  _137
REMARK   57  A    between atoms: _137  and  _138
REMARK   58  A    between atoms: _138  and  _139
REMARK   59  A    between atoms: _139  and  _140
REMARK   60  A    between atoms: _144  and  _146
REMARK   61  A    between atoms: _146  and  _147
REMARK   62  A    between atoms: _146  and  _149
REMARK   63  A    between atoms: _149  and  _150
REMARK   64  A    between atoms: _153  and  _155
REMARK   65  A    between atoms: _155  and  _156
REMARK   66  A    between atoms: _155  and  _158
REMARK   67  A    between atoms: _158  and  _159
REMARK   68  A    between atoms: _164  and  _165
REMARK   69  A    between atoms: _167  and  _169
REMARK   70  A    between atoms: _169  and  _170
REMARK   71  A    between atoms: _169  and  _172
REMARK   72  A    between atoms: _172  and  _173
REMARK   73  A    between atoms: _178  and  _180
REMARK   74  A    between atoms: _180  and  _181
REMARK   75  A    between atoms: _180  and  _183
REMARK   76  A    between atoms: _183  and  _184
REMARK   77  A    between atoms: _184  and  _185
REMARK   78  A    between atoms: _190  and  _192
REMARK   79  A    between atoms: _192  and  _193
REMARK   80  A    between atoms: _192  and  _195
REMARK   81  A    between atoms: _195  and  _196
REMARK   82  A    between atoms: _206  and  _208
REMARK   83  A    between atoms: _208  and  _209
REMARK   84  A    between atoms: _208  and  _211
REMARK   85  A    between atoms: _211  and  _212
REMARK   86  A    between atoms: _212  and  _213
REMARK   87  A    between atoms: _213  and  _215
REMARK   88  A    between atoms: _215  and  MG_372
REMARK   89  A    between atoms: _216  and  _218
REMARK   90  A    between atoms: _218  and  _219
REMARK   91  A    between atoms: _218  and  _221
REMARK   92  A    between atoms: _221  and  _222
REMARK   93  A    between atoms: _222  and  _223
REMARK   94  A    between atoms: _226  and  _228
REMARK   95  A    between atoms: _228  and  _229
REMARK   96  A    between atoms: _228  and  _231
REMARK   97  A    between atoms: _231  and  _232
REMARK   98  A    between atoms: _232  and  _233
REMARK   99  A    between atoms: _238  and  _240
REMARK  100  A    between atoms: _240  and  _241
REMARK  101  A    between atoms: _240  and  _243
REMARK  102  A    between atoms: _243  and  _244
REMARK  103  A    between atoms: _244  and  _245
REMARK  104  A    between atoms: _245  and  _246
REMARK  105  A    between atoms: _246  and  MG_372
REMARK  106  A    between atoms: _248  and  _250
REMARK  107  A    between atoms: _250  and  _251
REMARK  108  A    between atoms: _250  and  _253
REMARK  109  A    between atoms: _253  and  _254
REMARK  110  A    between atoms: _259  and  _261
REMARK  111  A    between atoms: _261  and  _262
REMARK  112  A    between atoms: _261  and  _264
REMARK  113  A    between atoms: _264  and  _265
REMARK  114  A    between atoms: _265  and  _266
REMARK  115  A    between atoms: _268  and  _270
REMARK  116  A    between atoms: _270  and  _271
REMARK  117  A    between atoms: _270  and  _273
REMARK  118  A    between atoms: _273  and  _274
REMARK  119  A    between atoms: _277  and  _279
REMARK  120  A    between atoms: _279  and  _280
REMARK  121  A    between atoms: _279  and  _282
REMARK  122  A    between atoms: _282  and  _283
REMARK  123  A    between atoms: _283  and  _284
REMARK  124  A    between atoms: _284  and  _285
REMARK  125  A    between atoms: _285  and  _286
REMARK  126  A    between atoms: _290  and  _292
REMARK  127  A    between atoms: _292  and  _293
REMARK  128  A    between atoms: _292  and  _295
REMARK  129  A    between atoms: _295  and  _296
REMARK  130  A    between atoms: _298  and  _300
REMARK  131  A    between atoms: _300  and  _301
REMARK  132  A    between atoms: _300  and  _303
REMARK  133  A    between atoms: _303  and  _304
REMARK  134  A    between atoms: _309  and  _311
REMARK  135  A    between atoms: _311  and  _312
REMARK  136  A    between atoms: _311  and  _314
REMARK  137  A    between atoms: _314  and  _315
REMARK  138  A    between atoms: _318  and  _320
REMARK  139  A    between atoms: _320  and  _321
REMARK  140  A    between atoms: _320  and  _323
REMARK  141  A    between atoms: _323  and  _324
REMARK  142  A    between atoms: _324  and  _325
REMARK  143  A    between atoms: _328  and  _330
REMARK  144  A    between atoms: _330  and  _331
REMARK  145  A    between atoms: _330  and  _333
REMARK  146  A    between atoms: _333  and  _334
REMARK  147  A    between atoms: _334  and  _335
REMARK  148  A    between atoms: _335  and  _336
REMARK  149  A    between atoms: _345  and  _347
REMARK  150  A    between atoms: _347  and  _348
REMARK  151  A    between atoms: _347  and  _350
REMARK  152  A    between atoms: _350  and  _351
REMARK  153  A    between atoms: _354  and  _356
REMARK  154  A    between atoms: _356  and  _357
REMARK  155  A    between atoms: _356  and  _359
REMARK  156  A    between atoms: _359  and  _360
REMARK  157  A    between atoms: _363  and  _365
REMARK  158  A    between atoms: _365  and  _366
REMARK  159  A    between atoms: _365  and  _368
REMARK  160  A    between atoms: _368  and  _369
REMARK                            x       y       z     vdW  Elec       q    Type
REMARK                         _______ _______ _______ _____ _____    ______ ____
ROOT
ATOM      1  CG  LYS A   1     -21.168  15.623 -18.347  0.00  0.00    -0.000 C 
ENDROOT
BRANCH   1   2
ATOM      2  CB  LYS A   1     -22.451  15.278 -17.605  0.00  0.00    +0.025 C 
BRANCH   2   3
ATOM      3  CA  LYS A   1     -22.275  15.231 -16.072  0.00  0.00    +0.133 C 
BRANCH   3   4
ATOM      4  N   LYS A   1     -23.476  14.754 -15.394  0.00  0.00    -0.239 NA
ATOM      5  H   LYS A   1     -24.359  15.294 -15.501  0.00  0.00    +0.142 HD
ENDBRANCH   3   4
BRANCH   3   6
ATOM      6  C   LYS A   1     -21.938  16.610 -15.564  0.00  0.00    +0.224 C 
ATOM      7  O   LYS A   1     -22.803  17.468 -15.459  0.00  0.00    -0.287 OA
ENDBRANCH   3   6
ENDBRANCH   2   3
ENDBRANCH   1   2
BRANCH   1   8
ATOM      8  CD  LYS A   1     -21.268  15.277 -19.860  0.00  0.00    -0.024 C 
BRANCH   8   9
ATOM      9  CE  LYS A   1     -21.997  16.334 -20.650  0.00  0.00    -0.086 C 
BRANCH   9  10
ATOM     10  NZ  LYS A   1     -22.282  15.854 -22.042  0.00  0.00    +0.380 N 
ATOM     11  HZ1 LYS A   1     -22.873  14.999 -21.998  0.00  0.00    -0.089 HD
ATOM     12  HZ2 LYS A   1     -21.386  15.634 -22.522  0.00  0.00    -0.089 HD
ATOM     13  HZ3 LYS A   1     -22.784  16.598 -22.568  0.00  0.00    -0.089 HD
ENDBRANCH   9  10
ENDBRANCH   8   9
ENDBRANCH   1   8
TORSDOF 7
REMARK  Name = ../refined-set-2016/4m6u/4m6u_pocket.pdb
REMARK  160 active torsions:
REMARK  status: ('A' for Active; 'I' for Inactive)
REMARK    1  A    between atoms: _1  and  _3
REMARK    2  A    between atoms: _3  and  _4
REMARK    3  A    between atoms: _3  and  _6
REMARK    4  A    between atoms: _9  and  _11
REMARK    5  A    between atoms: _11  and  _12
REMARK    6  A    between atoms: _11  and  _14
REMARK    7  A    between atoms: _14  and  _15
REMARK    8  A    between atoms: _20  and  _22
REMARK    9  A    between atoms: _22  and  _23
REMARK   10  A    between atoms: _22  and  _25
REMARK   11  A    between atoms: _25  and  _26
REMARK   12  A    between atoms: _29  and  _31
REMARK   13  A    between atoms: _31  and  _32
REMARK   14  A    between atoms: _35  and  _37
REMARK   15  A    between atoms: _37  and  _38
REMARK   16  A    between atoms: _37  and  _40
REMARK   17  A    between atoms: _43  and  _45
REMARK   18  A    between atoms: _45  and  _46
REMARK   19  A    between atoms: _45  and  _48
REMARK   20  A    between atoms: _51  and  _53
REMARK   21  A    between atoms: _53  and  _54
REMARK   22  A    between atoms: _53  and  _56
REMARK   23  A    between atoms: _56  and  _57
REMARK   24  A    between atoms: _63  and  _65
REMARK   25  A    between atoms: _65  and  _66
REMARK   26  A    between atoms: _65  and  _68
REMARK   27  A    between atoms: _68  and  _69
REMARK   28  A    between atoms: _74  and  _75
REMARK   29  A    between atoms: _77  and  _79
REMARK   30  A    between atoms: _79  and  _80
REMARK   31  A    between atoms: _79  and  _82
REMARK   32  A    between atoms: _82  and  _83
REMARK   33  A    between atoms: _88  and  _89
REMARK   34  A    between atoms: _91  and  _93
REMARK   35  A    between atoms: _93  and  _94
REMARK   36  A    between atoms: _93  and  _96
REMARK   37  A    between atoms: _96  and  _97
REMARK   38  A    between atoms: _99  and  _101
REMARK   39  A    between atoms: _101  and  _102
REMARK   40  A    between atoms: _101  and  _104
REMARK   41  A    between atoms: _104  and  _105
REMARK   42  A    between atoms: _110  and  _112
REMARK   43  A    between atoms: _112  and  _113
REMARK   44  A    between atoms: _112  and  _115
REMARK   45  A    between atoms: _115  and  _116
REMARK   46  A    between atoms: _118  and  _120
REMARK   47  A    between atoms: _120  and  _121
REMARK   48  A    between atoms: _120  and  _123
REMARK   49  A    between atoms: _123  and  _124
REMARK   50  A    between atoms: _124  and  _125
REMARK   51  A    between atoms: _125  and  _126
REMARK   52  A    between atoms: _126  and  _127
REMARK   53  A    between atoms: _131  and  _133
REMARK   54  A    between atoms: _133  and  _134
REMARK   55  A    between atoms: _133  and  _136
REMARK   56  A    between atoms: _136  and  _137
REMARK   57  A    between atoms: _137  and  _138
REMARK   58  A    between atoms: _138  and  _139
REMARK   59  A    between atoms: _139  and  _140
REMARK   60  A    between atoms: _144  and  _146
REMARK   61  A    between atoms: _146  and  _147
REMARK   62  A    between atoms: _146  and  _149
REMARK   63  A    between atoms: _149  and  _150
REMARK   64  A    between atoms: _153  and  _155
REMARK   65  A    between atoms: _155  and  _156
REMARK   66  A    between atoms: _155  and  _158
REMARK   67  A    between atoms: _158  and  _159
REMARK   68  A    between atoms: _164  and  _165
REMARK   69  A    between atoms: _167  and  _169
REMARK   70  A    between atoms: _169  and  _170
REMARK   71  A    between atoms: _169  and  _172
REMARK   72  A    between atoms: _172  and  _173
REMARK   73  A    between atoms: _178  and  _180
REMARK   74  A    between atoms: _180  and  _181
REMARK   75  A    between atoms: _180  and  _183
REMARK   76  A    between atoms: _183  and  _184
REMARK   77  A    between atoms: _184  and  _185
REMARK   78  A    between atoms: _190  and  _192
REMARK   79  A    between atoms: _192  and  _193
REMARK   80  A    between atoms: _192  and  _195
REMARK   81  A    between atoms: _195  and  _196
REMARK   82  A    between atoms: _206  and  _208
REMARK   83  A    between atoms: _208  and  _209
REMARK   84  A    between atoms: _208  and  _211
REMARK   85  A    between atoms: _211  and  _212
REMARK   86  A    between atoms: _212  and  _213
REMARK   87  A    between atoms: _213  and  _215
REMARK   88  A    between atoms: _215  and  MG_372
REMARK   89  A    between atoms: _216  and  _218
REMARK   90  A    between atoms: _218  and  _219
REMARK   91  A    between atoms: _218  and  _221
REMARK   92  A    between atoms: _221  and  _222
REMARK   93  A    between atoms: _222  and  _223
REMARK   94  A    between atoms: _226  and  _228
REMARK   95  A    between atoms: _228  and  _229
REMARK   96  A    between atoms: _228  and  _231
REMARK   97  A    between atoms: _231  and  _232
REMARK   98  A    between atoms: _232  and  _233
REMARK   99  A    between atoms: _238  and  _240
REMARK  100  A    between atoms: _240  and  _241
REMARK  101  A    between atoms: _240  and  _243
REMARK  102  A    between atoms: _243  and  _244
REMARK  103  A    between atoms: _244  and  _245
REMARK  104  A    between atoms: _245  and  _246
REMARK  105  A    between atoms: _246  and  MG_372
REMARK  106  A    between atoms: _248  and  _250
REMARK  107  A    between atoms: _250  and  _251
REMARK  108  A    between atoms: _250  and  _253
REMARK  109  A    between atoms: _253  and  _254
REMARK  110  A    between atoms: _259  and  _261
REMARK  111  A    between atoms: _261  and  _262
REMARK  112  A    between atoms: _261  and  _264
REMARK  113  A    between atoms: _264  and  _265
REMARK  114  A    between atoms: _265  and  _266
REMARK  115  A    between atoms: _268  and  _270
REMARK  116  A    between atoms: _270  and  _271
REMARK  117  A    between atoms: _270  and  _273
REMARK  118  A    between atoms: _273  and  _274
REMARK  119  A    between atoms: _277  and  _279
REMARK  120  A    between atoms: _279  and  _280
REMARK  121  A    between atoms: _279  and  _282
REMARK  122  A    between atoms: _282  and  _283
REMARK  123  A    between atoms: _283  and  _284
REMARK  124  A    between atoms: _284  and  _285
REMARK  125  A    between atoms: _285  and  _286
REMARK  126  A    between atoms: _290  and  _292
REMARK  127  A    between atoms: _292  and  _293
REMARK  128  A    between atoms: _292  and  _295
REMARK  129  A    between atoms: _295  and  _296
REMARK  130  A    between atoms: _298  and  _300
REMARK  131  A    between atoms: _300  and  _301
REMARK  132  A    between atoms: _300  and  _303
REMARK  133  A    between atoms: _303  and  _304
REMARK  134  A    between atoms: _309  and  _311
REMARK  135  A    between atoms: _311  and  _312
REMARK  136  A    between atoms: _311  and  _314
REMARK  137  A    between atoms: _314  and  _315
REMARK  138  A    between atoms: _318  and  _320
REMARK  139  A    between atoms: _320  and  _321
REMARK  140  A    between atoms: _320  and  _323
REMARK  141  A    between atoms: _323  and  _324
REMARK  142  A    between atoms: _324  and  _325
REMARK  143  A    between atoms: _328  and  _330
REMARK  144  A    between atoms: _330  and  _331
REMARK  145  A    between atoms: _330  and  _333
REMARK  146  A    between atoms: _333  and  _334
REMARK  147  A    between atoms: _334  and  _335
REMARK  148  A    between atoms: _335  and  _336
REMARK  149  A    between atoms: _345  and  _347
REMARK  150  A    between atoms: _347  and  _348
REMARK  151  A    between atoms: _347  and  _350
REMARK  152  A    between atoms: _350  and  _351
REMARK  153  A    between atoms: _354  and  _356
REMARK  154  A    between atoms: _356  and  _357
REMARK  155  A    between atoms: _356  and  _359
REMARK  156  A    between atoms: _359  and  _360
REMARK  157  A    between atoms: _363  and  _365
REMARK  158  A    between atoms: _365  and  _366
REMARK  159  A    between atoms: _365  and  _368
REMARK  160  A    between atoms: _368  and  _369
REMARK                            x       y       z     vdW  Elec       q    Type
REMARK                         _______ _______ _______ _____ _____    ______ ____
ROOT
ATOM      1  CG  LYS A   1     -19.565  21.331 -18.716  0.00  0.00    -0.000 C 
ENDROOT
BRANCH   1   2
ATOM      2  CB  LYS A   1     -18.590  21.724 -17.636  0.00  0.00    +0.025 C 
BRANCH   2   3
ATOM      3  CA  LYS A   1     -18.023  20.452 -16.919  0.00  0.00    +0.133 C 
BRANCH   3   4
ATOM      4  N   LYS A   1     -18.990  19.882 -15.992  0.00  0.00    -0.239 NA
ATOM      5  H   LYS A   1     -19.592  20.520 -15.433  0.00  0.00    +0.142 HD
ENDBRANCH   3   4
BRANCH   3   6
ATOM      6  C   LYS A   1     -16.788  20.795 -16.110  0.00  0.00    +0.224 C 
ATOM      7  O   LYS A   1     -16.897  21.367 -14.993  0.00  0.00    -0.287 OA
ENDBRANCH   3   6
ENDBRANCH   2   3
ENDBRANCH   1   2
BRANCH   1   8
ATOM      8  CD  LYS A   1     -20.259  22.444 -19.527  0.00  0.00    -0.024 C 
BRANCH   8   9
ATOM      9  CE  LYS A   1     -20.779  21.850 -20.840  0.00  0.00    -0.086 C 
BRANCH   9  10
ATOM     10  NZ  LYS A   1     -21.014  20.310 -20.844  0.00  0.00    +0.380 N 
ATOM     11  HZ1 LYS A   1     -21.716  20.066 -20.117  0.00  0.00    -0.089 HD
ATOM     12  HZ2 LYS A   1     -20.118  19.823 -20.640  0.00  0.00    -0.089 HD
ATOM     13  HZ3 LYS A   1     -21.364  20.016 -21.778  0.00  0.00    -0.089 HD
ENDBRANCH   9  10
ENDBRANCH   8   9
ENDBRANCH   1   8
TORSDOF 7
REMARK  Name = ../refined-set-2016/4m6u/4m6u_pocket.pdb
REMARK  160 active torsions:
REMARK  status: ('A' for Active; 'I' for Inactive)
REMARK    1  A    between atoms: _1  and  _3
REMARK    2  A    between atoms: _3  and  _4
REMARK    3  A    between atoms: _3  and  _6
REMARK    4  A    between atoms: _9  and  _11
REMARK    5  A    between atoms: _11  and  _12
REMARK    6  A    between atoms: _11  and  _14
REMARK    7  A    between atoms: _14  and  _15
REMARK    8  A    between atoms: _20  and  _22
REMARK    9  A    between atoms: _22  and  _23
REMARK   10  A    between atoms: _22  and  _25
REMARK   11  A    between atoms: _25  and  _26
REMARK   12  A    between atoms: _29  and  _31
REMARK   13  A    between atoms: _31  and  _32
REMARK   14  A    between atoms: _35  and  _37
REMARK   15  A    between atoms: _37  and  _38
REMARK   16  A    between atoms: _37  and  _40
REMARK   17  A    between atoms: _43  and  _45
REMARK   18  A    between atoms: _45  and  _46
REMARK   19  A    between atoms: _45  and  _48
REMARK   20  A    between atoms: _51  and  _53
REMARK   21  A    between atoms: _53  and  _54
REMARK   22  A    between atoms: _53  and  _56
REMARK   23  A    between atoms: _56  and  _57
REMARK   24  A    between atoms: _63  and  _65
REMARK   25  A    between atoms: _65  and  _66
REMARK   26  A    between atoms: _65  and  _68
REMARK   27  A    between atoms: _68  and  _69
REMARK   28  A    between atoms: _74  and  _75
REMARK   29  A    between atoms: _77  and  _79
REMARK   30  A    between atoms: _79  and  _80
REMARK   31  A    between atoms: _79  and  _82
REMARK   32  A    between atoms: _82  and  _83
REMARK   33  A    between atoms: _88  and  _89
REMARK   34  A    between atoms: _91  and  _93
REMARK   35  A    between atoms: _93  and  _94
REMARK   36  A    between atoms: _93  and  _96
REMARK   37  A    between atoms: _96  and  _97
REMARK   38  A    between atoms: _99  and  _101
REMARK   39  A    between atoms: _101  and  _102
REMARK   40  A    between atoms: _101  and  _104
REMARK   41  A    between atoms: _104  and  _105
REMARK   42  A    between atoms: _110  and  _112
REMARK   43  A    between atoms: _112  and  _113
REMARK   44  A    between atoms: _112  and  _115
REMARK   45  A    between atoms: _115  and  _116
REMARK   46  A    between atoms: _118  and  _120
REMARK   47  A    between atoms: _120  and  _121
REMARK   48  A    between atoms: _120  and  _123
REMARK   49  A    between atoms: _123  and  _124
REMARK   50  A    between atoms: _124  and  _125
REMARK   51  A    between atoms: _125  and  _126
REMARK   52  A    between atoms: _126  and  _127
REMARK   53  A    between atoms: _131  and  _133
REMARK   54  A    between atoms: _133  and  _134
REMARK   55  A    between atoms: _133  and  _136
REMARK   56  A    between atoms: _136  and  _137
REMARK   57  A    between atoms: _137  and  _138
REMARK   58  A    between atoms: _138  and  _139
REMARK   59  A    between atoms: _139  and  _140
REMARK   60  A    between atoms: _144  and  _146
REMARK   61  A    between atoms: _146  and  _147
REMARK   62  A    between atoms: _146  and  _149
REMARK   63  A    between atoms: _149  and  _150
REMARK   64  A    between atoms: _153  and  _155
REMARK   65  A    between atoms: _155  and  _156
REMARK   66  A    between atoms: _155  and  _158
REMARK   67  A    between atoms: _158  and  _159
REMARK   68  A    between atoms: _164  and  _165
REMARK   69  A    between atoms: _167  and  _169
REMARK   70  A    between atoms: _169  and  _170
REMARK   71  A    between atoms: _169  and  _172
REMARK   72  A    between atoms: _172  and  _173
REMARK   73  A    between atoms: _178  and  _180
REMARK   74  A    between atoms: _180  and  _181
REMARK   75  A    between atoms: _180  and  _183
REMARK   76  A    between atoms: _183  and  _184
REMARK   77  A    between atoms: _184  and  _185
REMARK   78  A    between atoms: _190  and  _192
REMARK   79  A    between atoms: _192  and  _193
REMARK   80  A    between atoms: _192  and  _195
REMARK   81  A    between atoms: _195  and  _196
REMARK   82  A    between atoms: _206  and  _208
REMARK   83  A    between atoms: _208  and  _209
REMARK   84  A    between atoms: _208  and  _211
REMARK   85  A    between atoms: _211  and  _212
REMARK   86  A    between atoms: _212  and  _213
REMARK   87  A    between atoms: _213  and  _215
REMARK   88  A    between atoms: _215  and  MG_372
REMARK   89  A    between atoms: _216  and  _218
REMARK   90  A    between atoms: _218  and  _219
REMARK   91  A    between atoms: _218  and  _221
REMARK   92  A    between atoms: _221  and  _222
REMARK   93  A    between atoms: _222  and  _223
REMARK   94  A    between atoms: _226  and  _228
REMARK   95  A    between atoms: _228  and  _229
REMARK   96  A    between atoms: _228  and  _231
REMARK   97  A    between atoms: _231  and  _232
REMARK   98  A    between atoms: _232  and  _233
REMARK   99  A    between atoms: _238  and  _240
REMARK  100  A    between atoms: _240  and  _241
REMARK  101  A    between atoms: _240  and  _243
REMARK  102  A    between atoms: _243  and  _244
REMARK  103  A    between atoms: _244  and  _245
REMARK  104  A    between atoms: _245  and  _246
REMARK  105  A    between atoms: _246  and  MG_372
REMARK  106  A    between atoms: _248  and  _250
REMARK  107  A    between atoms: _250  and  _251
REMARK  108  A    between atoms: _250  and  _253
REMARK  109  A    between atoms: _253  and  _254
REMARK  110  A    between atoms: _259  and  _261
REMARK  111  A    between atoms: _261  and  _262
REMARK  112  A    between atoms: _261  and  _264
REMARK  113  A    between atoms: _264  and  _265
REMARK  114  A    between atoms: _265  and  _266
REMARK  115  A    between atoms: _268  and  _270
REMARK  116  A    between atoms: _270  and  _271
REMARK  117  A    between atoms: _270  and  _273
REMARK  118  A    between atoms: _273  and  _274
REMARK  119  A    between atoms: _277  and  _279
REMARK  120  A    between atoms: _279  and  _280
REMARK  121  A    between atoms: _279  and  _282
REMARK  122  A    between atoms: _282  and  _283
REMARK  123  A    between atoms: _283  and  _284
REMARK  124  A    between atoms: _284  and  _285
REMARK  125  A    between atoms: _285  and  _286
REMARK  126  A    between atoms: _290  and  _292
REMARK  127  A    between atoms: _292  and  _293
REMARK  128  A    between atoms: _292  and  _295
REMARK  129  A    between atoms: _295  and  _296
REMARK  130  A    between atoms: _298  and  _300
REMARK  131  A    between atoms: _300  and  _301
REMARK  132  A    between atoms: _300  and  _303
REMARK  133  A    between atoms: _303  and  _304
REMARK  134  A    between atoms: _309  and  _311
REMARK  135  A    between atoms: _311  and  _312
REMARK  136  A    between atoms: _311  and  _314
REMARK  137  A    between atoms: _314  and  _315
REMARK  138  A    between atoms: _318  and  _320
REMARK  139  A    between atoms: _320  and  _321
REMARK  140  A    between atoms: _320  and  _323
REMARK  141  A    between atoms: _323  and  _324
REMARK  142  A    between atoms: _324  and  _325
REMARK  143  A    between atoms: _328  and  _330
REMARK  144  A    between atoms: _330  and  _331
REMARK  145  A    between atoms: _330  and  _333
REMARK  146  A    between atoms: _333  and  _334
REMARK  147  A    between atoms: _334  and  _335
REMARK  148  A    between atoms: _335  and  _336
REMARK  149  A    between atoms: _345  and  _347
REMARK  150  A    between atoms: _347  and  _348
REMARK  151  A    between atoms: _347  and  _350
REMARK  152  A    between atoms: _350  and  _351
REMARK  153  A    between atoms: _354  and  _356
REMARK  154  A    between atoms: _356  and  _357
REMARK  155  A    between atoms: _356  and  _359
REMARK  156  A    between atoms: _359  and  _360
REMARK  157  A    between atoms: _363  and  _365
REMARK  158  A    between atoms: _365  and  _366
REMARK  159  A    between atoms: _365  and  _368
REMARK  160  A    between atoms: _368  and  _369
REMARK                            x       y       z     vdW  Elec       q    Type
REMARK                         _______ _______ _______ _____ _____    ______ ____
ROOT
ATOM      1  C   TYR A   2     -13.792  20.404 -21.992  0.00  0.00    +0.241 C 
ATOM      2  O   TYR A   2     -13.008  21.393 -22.020  0.00  0.00    -0.273 OA
ATOM      3  N   ASN A   3     -14.823  20.237 -22.840  0.00  0.00    -0.297 N 
ATOM      4  H   ASN A   3     -15.376  19.358 -22.780  0.00  0.00    +0.150 HD
ENDROOT
BRANCH   3   5
ATOM      5  CA  ASN A   3     -15.205  21.234 -23.844  0.00  0.00    +0.158 C 
BRANCH   5   6
ATOM      6  C   ASN A   3     -14.002  21.736 -24.651  0.00  0.00    +0.241 C 
ATOM      7  O   ASN A   3     -13.845  22.964 -24.873  0.00  0.00    -0.273 OA
ATOM      8  N   GLN A   4     -13.167  20.787 -25.098  0.00  0.00    -0.298 N 
ATOM      9  H   GLN A   4     -13.309  19.809 -24.773  0.00  0.00    +0.150 HD
BRANCH   8  10
ATOM     10  CA  GLN A   4     -12.050  21.066 -26.035  0.00  0.00    +0.137 C 
BRANCH  10  11
ATOM     11  C   GLN A   4     -10.873  21.846 -25.448  0.00  0.00    +0.227 C 
ATOM     12  O   GLN A   4     -10.048  22.408 -26.192  0.00  0.00    -0.286 OA
ENDBRANCH  10  11
BRANCH  10  13
ATOM     13  CB  GLN A   4     -12.538  21.785 -27.289  0.00  0.00    +0.037 C 
BRANCH  13  14
ATOM     14  CG  GLN A   4     -13.674  21.079 -28.014  0.00  0.00    +0.087 C 
BRANCH  14  15
ATOM     15  CD  GLN A   4     -14.118  21.892 -29.199  0.00  0.00    +0.219 C 
ATOM     16  NE2 GLN A   4     -15.326  22.426 -29.111  0.00  0.00    -0.329 N 
ATOM     17 HE21 GLN A   4     -15.945  22.183 -28.311  0.00  0.00    +0.145 HD
ATOM     18 HE22 GLN A   4     -15.656  23.089 -29.841  0.00  0.00    +0.145 HD
ATOM     19  OE1 GLN A   4     -13.335  22.156 -30.147  0.00  0.00    -0.275 OA
ENDBRANCH  14  15
ENDBRANCH  13  14
ENDBRANCH  10  13
ENDBRANCH   8  10
ENDBRANCH   5   6
BRANCH   5  20
ATOM     20  CB  ASN A   3     -15.935  22.416 -23.150  0.00  0.00    +0.114 C 
BRANCH  20  21
ATOM     21  CG  ASN A   3     -17.350  22.026 -22.765  0.00  0.00    +0.222 C 
ATOM     22  OD1 ASN A   3     -17.592  21.780 -21.601  0.00  0.00    -0.275 OA
ATOM     23  ND2 ASN A   3     -18.244  21.860 -23.764  0.00  0.00    -0.329 N 
ATOM     24 HD21 ASN A   3     -19.198  21.504 -23.554  0.00  0.00    +0.145 HD
ATOM     25 HD22 ASN A   3     -17.978  22.088 -24.743  0.00  0.00    +0.145 HD
ENDBRANCH  20  21
ENDBRANCH   5  20
ENDBRANCH   3   5
BRANCH   1  26
ATOM     26  CA  TYR A   2     -13.527  19.296 -20.979  0.00  0.00    +0.153 C 
BRANCH  26  29
ATOM     27  C   ASP A   1     -15.642  18.432 -20.034  0.00  0.00    +0.239 C 
ATOM     28  O   ASP A   1     -15.821  19.375 -19.235  0.00  0.00    -0.274 OA
ATOM     29  N   TYR A   2     -14.556  18.274 -20.810  0.00  0.00    -0.297 N 
ATOM     30  H   TYR A   2     -14.442  17.374 -21.318  0.00  0.00    +0.150 HD
BRANCH  27  31
ATOM     31  CA  ASP A   1     -16.678  17.304 -20.102  0.00  0.00    +0.156 C 
BRANCH  31  32
ATOM     32  N   ASP A   1     -16.748  16.646 -18.780  0.00  0.00    -0.238 NA
ATOM     33  H   ASP A   1     -16.877  17.247 -17.941  0.00  0.00    +0.142 HD
ENDBRANCH  31  32
BRANCH  31  34
ATOM     34  CB  ASP A   1     -18.037  17.857 -20.459  0.00  0.00    +0.140 C 
BRANCH  34  35
ATOM     35  CG  ASP A   1     -18.161  18.338 -21.887  0.00  0.00    +0.367 C 
ATOM     36  OD2 ASP A   1     -19.327  18.605 -22.308  0.00  0.00    -0.246 OA
ATOM     37  OD1 ASP A   1     -17.116  18.416 -22.577  0.00  0.00    -0.246 OA
ENDBRANCH  34  35
ENDBRANCH  31  34
ENDBRANCH  27  31
ENDBRANCH  26  29
BRANCH  26  38
ATOM     38  CB  TYR A   2     -12.119  18.653 -21.238  0.00  0.00    +0.055 C 
BRANCH  38  39
ATOM     39  CG  TYR A   2     -11.393  18.271 -19.950  0.00  0.00    -0.020 A 
ATOM     40  CD2 TYR A   2     -11.012  19.231 -19.045  0.00  0.00    -0.001 A 
ATOM     41  CE2 TYR A   2     -10.398  18.890 -17.833  0.00  0.00    +0.036 A 
ATOM     42  CZ  TYR A   2     -10.081  17.573 -17.574  0.00  0.00    +0.134 A 
ATOM     43  CE1 TYR A   2     -10.439  16.601 -18.503  0.00  0.00    +0.036 A 
ATOM     44  CD1 TYR A   2     -11.077  16.972 -19.670  0.00  0.00    -0.001 A 
BRANCH  42  45
ATOM     45  OH  TYR A   2      -9.452  17.171 -16.398  0.00  0.00    -0.506 OA
ATOM     46  HH  TYR A   2      -9.260  17.966 -15.840  0.00  0.00    +0.292 HD
ENDBRANCH  42  45
ENDBRANCH  38  39
ENDBRANCH  26  38
ENDBRANCH   1  26
TORSDOF 18
REMARK  Name = ../refined-set-2016/4m6u/4m6u_pocket.pdb
REMARK  160 active torsions:
REMARK  status: ('A' for Active; 'I' for Inactive)
REMARK    1  A    between atoms: _1  and  _3
REMARK    2  A    between atoms: _3  and  _4
REMARK    3  A    between atoms: _3  and  _6
REMARK    4  A    between atoms: _9  and  _11
REMARK    5  A    between atoms: _11  and  _12
REMARK    6  A    between atoms: _11  and  _14
REMARK    7  A    between atoms: _14  and  _15
REMARK    8  A    between atoms: _20  and  _22
REMARK    9  A    between atoms: _22  and  _23
REMARK   10  A    between atoms: _22  and  _25
REMARK   11  A    between atoms: _25  and  _26
REMARK   12  A    between atoms: _29  and  _31
REMARK   13  A    between atoms: _31  and  _32
REMARK   14  A    between atoms: _35  and  _37
REMARK   15  A    between atoms: _37  and  _38
REMARK   16  A    between atoms: _37  and  _40
REMARK   17  A    between atoms: _43  and  _45
REMARK   18  A    between atoms: _45  and  _46
REMARK   19  A    between atoms: _45  and  _48
REMARK   20  A    between atoms: _51  and  _53
REMARK   21  A    between atoms: _53  and  _54
REMARK   22  A    between atoms: _53  and  _56
REMARK   23  A    between atoms: _56  and  _57
REMARK   24  A    between atoms: _63  and  _65
REMARK   25  A    between atoms: _65  and  _66
REMARK   26  A    between atoms: _65  and  _68
REMARK   27  A    between atoms: _68  and  _69
REMARK   28  A    between atoms: _74  and  _75
REMARK   29  A    between atoms: _77  and  _79
REMARK   30  A    between atoms: _79  and  _80
REMARK   31  A    between atoms: _79  and  _82
REMARK   32  A    between atoms: _82  and  _83
REMARK   33  A    between atoms: _88  and  _89
REMARK   34  A    between atoms: _91  and  _93
REMARK   35  A    between atoms: _93  and  _94
REMARK   36  A    between atoms: _93  and  _96
REMARK   37  A    between atoms: _96  and  _97
REMARK   38  A    between atoms: _99  and  _101
REMARK   39  A    between atoms: _101  and  _102
REMARK   40  A    between atoms: _101  and  _104
REMARK   41  A    between atoms: _104  and  _105
REMARK   42  A    between atoms: _110  and  _112
REMARK   43  A    between atoms: _112  and  _113
REMARK   44  A    between atoms: _112  and  _115
REMARK   45  A    between atoms: _115  and  _116
REMARK   46  A    between atoms: _118  and  _120
REMARK   47  A    between atoms: _120  and  _121
REMARK   48  A    between atoms: _120  and  _123
REMARK   49  A    between atoms: _123  and  _124
REMARK   50  A    between atoms: _124  and  _125
REMARK   51  A    between atoms: _125  and  _126
REMARK   52  A    between atoms: _126  and  _127
REMARK   53  A    between atoms: _131  and  _133
REMARK   54  A    between atoms: _133  and  _134
REMARK   55  A    between atoms: _133  and  _136
REMARK   56  A    between atoms: _136  and  _137
REMARK   57  A    between atoms: _137  and  _138
REMARK   58  A    between atoms: _138  and  _139
REMARK   59  A    between atoms: _139  and  _140
REMARK   60  A    between atoms: _144  and  _146
REMARK   61  A    between atoms: _146  and  _147
REMARK   62  A    between atoms: _146  and  _149
REMARK   63  A    between atoms: _149  and  _150
REMARK   64  A    between atoms: _153  and  _155
REMARK   65  A    between atoms: _155  and  _156
REMARK   66  A    between atoms: _155  and  _158
REMARK   67  A    between atoms: _158  and  _159
REMARK   68  A    between atoms: _164  and  _165
REMARK   69  A    between atoms: _167  and  _169
REMARK   70  A    between atoms: _169  and  _170
REMARK   71  A    between atoms: _169  and  _172
REMARK   72  A    between atoms: _172  and  _173
REMARK   73  A    between atoms: _178  and  _180
REMARK   74  A    between atoms: _180  and  _181
REMARK   75  A    between atoms: _180  and  _183
REMARK   76  A    between atoms: _183  and  _184
REMARK   77  A    between atoms: _184  and  _185
REMARK   78  A    between atoms: _190  and  _192
REMARK   79  A    between atoms: _192  and  _193
REMARK   80  A    between atoms: _192  and  _195
REMARK   81  A    between atoms: _195  and  _196
REMARK   82  A    between atoms: _206  and  _208
REMARK   83  A    between atoms: _208  and  _209
REMARK   84  A    between atoms: _208  and  _211
REMARK   85  A    between atoms: _211  and  _212
REMARK   86  A    between atoms: _212  and  _213
REMARK   87  A    between atoms: _213  and  _215
REMARK   88  A    between atoms: _215  and  MG_372
REMARK   89  A    between atoms: _216  and  _218
REMARK   90  A    between atoms: _218  and  _219
REMARK   91  A    between atoms: _218  and  _221
REMARK   92  A    between atoms: _221  and  _222
REMARK   93  A    between atoms: _222  and  _223
REMARK   94  A    between atoms: _226  and  _228
REMARK   95  A    between atoms: _228  and  _229
REMARK   96  A    between atoms: _228  and  _231
REMARK   97  A    between atoms: _231  and  _232
REMARK   98  A    between atoms: _232  and  _233
REMARK   99  A    between atoms: _238  and  _240
REMARK  100  A    between atoms: _240  and  _241
REMARK  101  A    between atoms: _240  and  _243
REMARK  102  A    between atoms: _243  and  _244
REMARK  103  A    between atoms: _244  and  _245
REMARK  104  A    between atoms: _245  and  _246
REMARK  105  A    between atoms: _246  and  MG_372
REMARK  106  A    between atoms: _248  and  _250
REMARK  107  A    between atoms: _250  and  _251
REMARK  108  A    between atoms: _250  and  _253
REMARK  109  A    between atoms: _253  and  _254
REMARK  110  A    between atoms: _259  and  _261
REMARK  111  A    between atoms: _261  and  _262
REMARK  112  A    between atoms: _261  and  _264
REMARK  113  A    between atoms: _264  and  _265
REMARK  114  A    between atoms: _265  and  _266
REMARK  115  A    between atoms: _268  and  _270
REMARK  116  A    between atoms: _270  and  _271
REMARK  117  A    between atoms: _270  and  _273
REMARK  118  A    between atoms: _273  and  _274
REMARK  119  A    between atoms: _277  and  _279
REMARK  120  A    between atoms: _279  and  _280
REMARK  121  A    between atoms: _279  and  _282
REMARK  122  A    between atoms: _282  and  _283
REMARK  123  A    between atoms: _283  and  _284
REMARK  124  A    between atoms: _284  and  _285
REMARK  125  A    between atoms: _285  and  _286
REMARK  126  A    between atoms: _290  and  _292
REMARK  127  A    between atoms: _292  and  _293
REMARK  128  A    between atoms: _292  and  _295
REMARK  129  A    between atoms: _295  and  _296
REMARK  130  A    between atoms: _298  and  _300
REMARK  131  A    between atoms: _300  and  _301
REMARK  132  A    between atoms: _300  and  _303
REMARK  133  A    between atoms: _303  and  _304
REMARK  134  A    between atoms: _309  and  _311
REMARK  135  A    between atoms: _311  and  _312
REMARK  136  A    between atoms: _311  and  _314
REMARK  137  A    between atoms: _314  and  _315
REMARK  138  A    between atoms: _318  and  _320
REMARK  139  A    between atoms: _320  and  _321
REMARK  140  A    between atoms: _320  and  _323
REMARK  141  A    between atoms: _323  and  _324
REMARK  142  A    between atoms: _324  and  _325
REMARK  143  A    between atoms: _328  and  _330
REMARK  144  A    between atoms: _330  and  _331
REMARK  145  A    between atoms: _330  and  _333
REMARK  146  A    between atoms: _333  and  _334
REMARK  147  A    between atoms: _334  and  _335
REMARK  148  A    between atoms: _335  and  _336
REMARK  149  A    between atoms: _345  and  _347
REMARK  150  A    between atoms: _347  and  _348
REMARK  151  A    between atoms: _347  and  _350
REMARK  152  A    between atoms: _350  and  _351
REMARK  153  A    between atoms: _354  and  _356
REMARK  154  A    between atoms: _356  and  _357
REMARK  155  A    between atoms: _356  and  _359
REMARK  156  A    between atoms: _359  and  _360
REMARK  157  A    between atoms: _363  and  _365
REMARK  158  A    between atoms: _365  and  _366
REMARK  159  A    between atoms: _365  and  _368
REMARK  160  A    between atoms: _368  and  _369
REMARK                            x       y       z     vdW  Elec       q    Type
REMARK                         _______ _______ _______ _____ _____    ______ ____
ROOT
ATOM      1  CG  TRP A   1     -18.301  10.029 -20.818  0.00  0.00    -0.002 A 
ATOM      2  CD1 TRP A   1     -18.120  11.362 -20.952  0.00  0.00    +0.068 A 
ATOM      3  NE1 TRP A   1     -19.316  11.984 -21.285  0.00  0.00    -0.352 N 
ATOM      4  HE1 TRP A   1     -19.457  13.008 -21.401  0.00  0.00    +0.166 HD
ATOM      5  CE2 TRP A   1     -20.283  11.018 -21.435  0.00  0.00    +0.056 A 
ATOM      6  CZ2 TRP A   1     -21.629  11.124 -21.856  0.00  0.00    +0.017 A 
ATOM      7  CH2 TRP A   1     -22.366   9.946 -21.944  0.00  0.00    +0.001 A 
ATOM      8  CZ3 TRP A   1     -21.783   8.685 -21.646  0.00  0.00    +0.000 A 
ATOM      9  CE3 TRP A   1     -20.430   8.592 -21.249  0.00  0.00    +0.001 A 
ATOM     10  CD2 TRP A   1     -19.659   9.766 -21.187  0.00  0.00    +0.013 A 
ENDROOT
BRANCH   1  11
ATOM     11  CB  TRP A   1     -17.231   8.933 -20.608  0.00  0.00    +0.053 C 
BRANCH  11  12
ATOM     12  CA  TRP A   1     -16.230   9.005 -19.464  0.00  0.00    +0.137 C 
BRANCH  12  13
ATOM     13  N   TRP A   1     -16.875   8.731 -18.191  0.00  0.00    -0.239 NA
ATOM     14  H   TRP A   1     -17.081   9.527 -17.554  0.00  0.00    +0.142 HD
ENDBRANCH  12  13
BRANCH  12  15
ATOM     15  C   TRP A   1     -15.568  10.363 -19.413  0.00  0.00    +0.224 C 
ATOM     16  O   TRP A   1     -15.890  11.191 -18.515  0.00  0.00    -0.287 OA
ENDBRANCH  12  15
ENDBRANCH  11  12
ENDBRANCH   1  11
TORSDOF 4
REMARK  Name = ../refined-set-2016/4m6u/4m6u_pocket.pdb
REMARK  160 active torsions:
REMARK  status: ('A' for Active; 'I' for Inactive)
REMARK    1  A    between atoms: _1  and  _3
REMARK    2  A    between atoms: _3  and  _4
REMARK    3  A    between atoms: _3  and  _6
REMARK    4  A    between atoms: _9  and  _11
REMARK    5  A    between atoms: _11  and  _12
REMARK    6  A    between atoms: _11  and  _14
REMARK    7  A    between atoms: _14  and  _15
REMARK    8  A    between atoms: _20  and  _22
REMARK    9  A    between atoms: _22  and  _23
REMARK   10  A    between atoms: _22  and  _25
REMARK   11  A    between atoms: _25  and  _26
REMARK   12  A    between atoms: _29  and  _31
REMARK   13  A    between atoms: _31  and  _32
REMARK   14  A    between atoms: _35  and  _37
REMARK   15  A    between atoms: _37  and  _38
REMARK   16  A    between atoms: _37  and  _40
REMARK   17  A    between atoms: _43  and  _45
REMARK   18  A    between atoms: _45  and  _46
REMARK   19  A    between atoms: _45  and  _48
REMARK   20  A    between atoms: _51  and  _53
REMARK   21  A    between atoms: _53  and  _54
REMARK   22  A    between atoms: _53  and  _56
REMARK   23  A    between atoms: _56  and  _57
REMARK   24  A    between atoms: _63  and  _65
REMARK   25  A    between atoms: _65  and  _66
REMARK   26  A    between atoms: _65  and  _68
REMARK   27  A    between atoms: _68  and  _69
REMARK   28  A    between atoms: _74  and  _75
REMARK   29  A    between atoms: _77  and  _79
REMARK   30  A    between atoms: _79  and  _80
REMARK   31  A    between atoms: _79  and  _82
REMARK   32  A    between atoms: _82  and  _83
REMARK   33  A    between atoms: _88  and  _89
REMARK   34  A    between atoms: _91  and  _93
REMARK   35  A    between atoms: _93  and  _94
REMARK   36  A    between atoms: _93  and  _96
REMARK   37  A    between atoms: _96  and  _97
REMARK   38  A    between atoms: _99  and  _101
REMARK   39  A    between atoms: _101  and  _102
REMARK   40  A    between atoms: _101  and  _104
REMARK   41  A    between atoms: _104  and  _105
REMARK   42  A    between atoms: _110  and  _112
REMARK   43  A    between atoms: _112  and  _113
REMARK   44  A    between atoms: _112  and  _115
REMARK   45  A    between atoms: _115  and  _116
REMARK   46  A    between atoms: _118  and  _120
REMARK   47  A    between atoms: _120  and  _121
REMARK   48  A    between atoms: _120  and  _123
REMARK   49  A    between atoms: _123  and  _124
REMARK   50  A    between atoms: _124  and  _125
REMARK   51  A    between atoms: _125  and  _126
REMARK   52  A    between atoms: _126  and  _127
REMARK   53  A    between atoms: _131  and  _133
REMARK   54  A    between atoms: _133  and  _134
REMARK   55  A    between atoms: _133  and  _136
REMARK   56  A    between atoms: _136  and  _137
REMARK   57  A    between atoms: _137  and  _138
REMARK   58  A    between atoms: _138  and  _139
REMARK   59  A    between atoms: _139  and  _140
REMARK   60  A    between atoms: _144  and  _146
REMARK   61  A    between atoms: _146  and  _147
REMARK   62  A    between atoms: _146  and  _149
REMARK   63  A    between atoms: _149  and  _150
REMARK   64  A    between atoms: _153  and  _155
REMARK   65  A    between atoms: _155  and  _156
REMARK   66  A    between atoms: _155  and  _158
REMARK   67  A    between atoms: _158  and  _159
REMARK   68  A    between atoms: _164  and  _165
REMARK   69  A    between atoms: _167  and  _169
REMARK   70  A    between atoms: _169  and  _170
REMARK   71  A    between atoms: _169  and  _172
REMARK   72  A    between atoms: _172  and  _173
REMARK   73  A    between atoms: _178  and  _180
REMARK   74  A    between atoms: _180  and  _181
REMARK   75  A    between atoms: _180  and  _183
REMARK   76  A    between atoms: _183  and  _184
REMARK   77  A    between atoms: _184  and  _185
REMARK   78  A    between atoms: _190  and  _192
REMARK   79  A    between atoms: _192  and  _193
REMARK   80  A    between atoms: _192  and  _195
REMARK   81  A    between atoms: _195  and  _196
REMARK   82  A    between atoms: _206  and  _208
REMARK   83  A    between atoms: _208  and  _209
REMARK   84  A    between atoms: _208  and  _211
REMARK   85  A    between atoms: _211  and  _212
REMARK   86  A    between atoms: _212  and  _213
REMARK   87  A    between atoms: _213  and  _215
REMARK   88  A    between atoms: _215  and  MG_372
REMARK   89  A    between atoms: _216  and  _218
REMARK   90  A    between atoms: _218  and  _219
REMARK   91  A    between atoms: _218  and  _221
REMARK   92  A    between atoms: _221  and  _222
REMARK   93  A    between atoms: _222  and  _223
REMARK   94  A    between atoms: _226  and  _228
REMARK   95  A    between atoms: _228  and  _229
REMARK   96  A    between atoms: _228  and  _231
REMARK   97  A    between atoms: _231  and  _232
REMARK   98  A    between atoms: _232  and  _233
REMARK   99  A    between atoms: _238  and  _240
REMARK  100  A    between atoms: _240  and  _241
REMARK  101  A    between atoms: _240  and  _243
REMARK  102  A    between atoms: _243  and  _244
REMARK  103  A    between atoms: _244  and  _245
REMARK  104  A    between atoms: _245  and  _246
REMARK  105  A    between atoms: _246  and  MG_372
REMARK  106  A    between atoms: _248  and  _250
REMARK  107  A    between atoms: _250  and  _251
REMARK  108  A    between atoms: _250  and  _253
REMARK  109  A    between atoms: _253  and  _254
REMARK  110  A    between atoms: _259  and  _261
REMARK  111  A    between atoms: _261  and  _262
REMARK  112  A    between atoms: _261  and  _264
REMARK  113  A    between atoms: _264  and  _265
REMARK  114  A    between atoms: _265  and  _266
REMARK  115  A    between atoms: _268  and  _270
REMARK  116  A    between atoms: _270  and  _271
REMARK  117  A    between atoms: _270  and  _273
REMARK  118  A    between atoms: _273  and  _274
REMARK  119  A    between atoms: _277  and  _279
REMARK  120  A    between atoms: _279  and  _280
REMARK  121  A    between atoms: _279  and  _282
REMARK  122  A    between atoms: _282  and  _283
REMARK  123  A    between atoms: _283  and  _284
REMARK  124  A    between atoms: _284  and  _285
REMARK  125  A    between atoms: _285  and  _286
REMARK  126  A    between atoms: _290  and  _292
REMARK  127  A    between atoms: _292  and  _293
REMARK  128  A    between atoms: _292  and  _295
REMARK  129  A    between atoms: _295  and  _296
REMARK  130  A    between atoms: _298  and  _300
REMARK  131  A    between atoms: _300  and  _301
REMARK  132  A    between atoms: _300  and  _303
REMARK  133  A    between atoms: _303  and  _304
REMARK  134  A    between atoms: _309  and  _311
REMARK  135  A    between atoms: _311  and  _312
REMARK  136  A    between atoms: _311  and  _314
REMARK  137  A    between atoms: _314  and  _315
REMARK  138  A    between atoms: _318  and  _320
REMARK  139  A    between atoms: _320  and  _321
REMARK  140  A    between atoms: _320  and  _323
REMARK  141  A    between atoms: _323  and  _324
REMARK  142  A    between atoms: _324  and  _325
REMARK  143  A    between atoms: _328  and  _330
REMARK  144  A    between atoms: _330  and  _331
REMARK  145  A    between atoms: _330  and  _333
REMARK  146  A    between atoms: _333  and  _334
REMARK  147  A    between atoms: _334  and  _335
REMARK  148  A    between atoms: _335  and  _336
REMARK  149  A    between atoms: _345  and  _347
REMARK  150  A    between atoms: _347  and  _348
REMARK  151  A    between atoms: _347  and  _350
REMARK  152  A    between atoms: _350  and  _351
REMARK  153  A    between atoms: _354  and  _356
REMARK  154  A    between atoms: _356  and  _357
REMARK  155  A    between atoms: _356  and  _359
REMARK  156  A    between atoms: _359  and  _360
REMARK  157  A    between atoms: _363  and  _365
REMARK  158  A    between atoms: _365  and  _366
REMARK  159  A    between atoms: _365  and  _368
REMARK  160  A    between atoms: _368  and  _369
REMARK                            x       y       z     vdW  Elec       q    Type
REMARK                         _______ _______ _______ _____ _____    ______ ____
ROOT
ATOM      1 MG   UNK A   1     -20.179  18.355 -24.364  0.00  0.00    +0.000 Mg
ENDROOT
BRANCH   1   2
ATOM      2  O   UNK A   1     -20.462  17.755 -26.460  0.00  0.00    +0.000 OA
BRANCH   2   3
ATOM      3  C   UNK A   1     -20.461  18.669 -27.239  0.00  0.00    +0.000 C 
ATOM      4  O   UNK A   1     -20.574  19.881 -26.988  0.00  0.00    +0.000 OA
BRANCH   3   5
ATOM      5  C   UNK A   1     -20.398  18.241 -28.720  0.00  0.00    +0.000 C 
BRANCH   5   6
ATOM      6  C   UNK A   1     -21.534  17.321 -29.083  0.00  0.00    +0.000 C 
BRANCH   6   7
ATOM      7  C   UNK A   1     -21.430  16.634 -30.446  0.00  0.00    +0.000 C 
BRANCH   7   8
ATOM      8  C   UNK A   1     -21.153  17.655 -31.545  0.00  0.00    +0.000 C 
ATOM      9  N   GLU A   2     -19.897  17.736 -31.964  0.00  0.00    +0.000 N 
ATOM     10  H   GLU A   2     -19.194  17.089 -31.554  0.00  0.00    +0.000 HD
ATOM     11  O   UNK A   1     -22.056  18.365 -31.969  0.00  0.00    +0.000 OA
BRANCH   9  12
ATOM     12  CA  GLU A   2     -19.458  18.690 -32.972  0.00  0.00    +0.000 C 
BRANCH  12  13
ATOM     13  C   GLU A   2     -19.307  18.125 -34.373  0.00  0.00    +0.000 C 
ATOM     14  O   GLU A   2     -18.906  18.861 -35.320  0.00  0.00    +0.000 OA
ENDBRANCH  12  13
BRANCH  12  15
ATOM     15  CB  GLU A   2     -18.247  19.449 -32.447  0.00  0.00    +0.000 C 
BRANCH  15  16
ATOM     16  CG  GLU A   2     -18.637  20.437 -31.377  0.00  0.00    +0.000 C 
ATOM     17  ND2 GLU A   2     -17.979  20.358 -30.236  0.00  0.00    +0.000 N 
ATOM     18 HD21 GLU A   2     -18.255  20.960 -29.434  0.00  0.00    +0.000 HD
ATOM     19 HD22 GLU A   2     -17.185  19.694 -30.139  0.00  0.00    +0.000 HD
ATOM     20  OD1 GLU A   2     -19.589  21.212 -31.541  0.00  0.00    +0.000 OA
ENDBRANCH  15  16
ENDBRANCH  12  15
ENDBRANCH   9  12
ENDBRANCH   7   8
BRANCH   7  21
ATOM     21  N   UNK A   1     -20.426  15.562 -30.465  0.00  0.00    +0.000 NA
ATOM     22  H   UNK A   1     -19.790  15.449 -29.650  0.00  0.00    +0.000 HD
ENDBRANCH   7  21
ENDBRANCH   6   7
ENDBRANCH   5   6
ENDBRANCH   3   5
ENDBRANCH   2   3
ENDBRANCH   1   2
BRANCH   1  23
ATOM     23  O   UNK A   1     -20.034  16.238 -23.982  0.00  0.00    +0.000 OA
BRANCH  23  24
ATOM     24  C   UNK A   1     -19.393  15.296 -23.490  0.00  0.00    +0.000 C 
ATOM     25  O   UNK A   1     -19.924  14.482 -22.716  0.00  0.00    +0.000 OA
BRANCH  24  26
ATOM     26  C   UNK A   1     -17.913  15.126 -23.872  0.00  0.00    +0.000 C 
BRANCH  26  27
ATOM     27  C   UNK A   1     -17.117  14.452 -22.794  0.00  0.00    +0.000 C 
BRANCH  27  28
ATOM     28  C   UNK A   1     -15.657  14.111 -23.092  0.00  0.00    +0.000 C 
BRANCH  28  29
ATOM     29  C   UNK A   1     -14.890  15.304 -23.633  0.00  0.00    +0.000 C 
ATOM     30  O   UNK A   1     -14.509  16.227 -22.924  0.00  0.00    +0.000 OA
ATOM     31  N   GLU A   2     -14.732  15.288 -24.970  0.00  0.00    +0.000 N 
ATOM     32  H   GLU A   2     -15.176  14.507 -25.494  0.00  0.00    +0.000 HD
BRANCH  31  33
ATOM     33  CA  GLU A   2     -13.984  16.283 -25.748  0.00  0.00    +0.000 C 
BRANCH  33  34
ATOM     34  C   GLU A   2     -12.780  16.879 -25.004  0.00  0.00    +0.000 C 
ATOM     35  O   GLU A   2     -12.726  18.084 -24.780  0.00  0.00    +0.000 OA
ENDBRANCH  33  34
BRANCH  33  36
ATOM     36  CB  GLU A   2     -14.900  17.378 -26.298  0.00  0.00    +0.000 C 
BRANCH  36  37
ATOM     37  CG  GLU A   2     -15.902  16.917 -27.359  0.00  0.00    +0.000 C 
BRANCH  37  38
ATOM     38  CD  GLU A   2     -16.546  18.085 -28.099  0.00  0.00    +0.000 C 
ATOM     39  OE2 GLU A   2     -17.024  18.980 -27.374  0.00  0.00    +0.000 OA
ATOM     40  OE1 GLU A   2     -16.542  18.145 -29.363  0.00  0.00    +0.000 OA
ENDBRANCH  37  38
ENDBRANCH  36  37
ENDBRANCH  33  36
ENDBRANCH  31  33
ENDBRANCH  28  29
BRANCH  28  41
ATOM     41  N   UNK A   1     -15.092  13.533 -21.893  0.00  0.00    +0.000 NA
ATOM     42  H   UNK A   1     -15.288  14.001 -20.985  0.00  0.00    +0.000 HD
ENDBRANCH  28  41
ENDBRANCH  27  28
ENDBRANCH  26  27
ENDBRANCH  24  26
ENDBRANCH  23  24
ENDBRANCH   1  23
TORSDOF 23
REMARK  Name = ../refined-set-2016/4m6u/4m6u_pocket.pdb
REMARK  160 active torsions:
REMARK  status: ('A' for Active; 'I' for Inactive)
REMARK    1  A    between atoms: _1  and  _3
REMARK    2  A    between atoms: _3  and  _4
REMARK    3  A    between atoms: _3  and  _6
REMARK    4  A    between atoms: _9  and  _11
REMARK    5  A    between atoms: _11  and  _12
REMARK    6  A    between atoms: _11  and  _14
REMARK    7  A    between atoms: _14  and  _15
REMARK    8  A    between atoms: _20  and  _22
REMARK    9  A    between atoms: _22  and  _23
REMARK   10  A    between atoms: _22  and  _25
REMARK   11  A    between atoms: _25  and  _26
REMARK   12  A    between atoms: _29  and  _31
REMARK   13  A    between atoms: _31  and  _32
REMARK   14  A    between atoms: _35  and  _37
REMARK   15  A    between atoms: _37  and  _38
REMARK   16  A    between atoms: _37  and  _40
REMARK   17  A    between atoms: _43  and  _45
REMARK   18  A    between atoms: _45  and  _46
REMARK   19  A    between atoms: _45  and  _48
REMARK   20  A    between atoms: _51  and  _53
REMARK   21  A    between atoms: _53  and  _54
REMARK   22  A    between atoms: _53  and  _56
REMARK   23  A    between atoms: _56  and  _57
REMARK   24  A    between atoms: _63  and  _65
REMARK   25  A    between atoms: _65  and  _66
REMARK   26  A    between atoms: _65  and  _68
REMARK   27  A    between atoms: _68  and  _69
REMARK   28  A    between atoms: _74  and  _75
REMARK   29  A    between atoms: _77  and  _79
REMARK   30  A    between atoms: _79  and  _80
REMARK   31  A    between atoms: _79  and  _82
REMARK   32  A    between atoms: _82  and  _83
REMARK   33  A    between atoms: _88  and  _89
REMARK   34  A    between atoms: _91  and  _93
REMARK   35  A    between atoms: _93  and  _94
REMARK   36  A    between atoms: _93  and  _96
REMARK   37  A    between atoms: _96  and  _97
REMARK   38  A    between atoms: _99  and  _101
REMARK   39  A    between atoms: _101  and  _102
REMARK   40  A    between atoms: _101  and  _104
REMARK   41  A    between atoms: _104  and  _105
REMARK   42  A    between atoms: _110  and  _112
REMARK   43  A    between atoms: _112  and  _113
REMARK   44  A    between atoms: _112  and  _115
REMARK   45  A    between atoms: _115  and  _116
REMARK   46  A    between atoms: _118  and  _120
REMARK   47  A    between atoms: _120  and  _121
REMARK   48  A    between atoms: _120  and  _123
REMARK   49  A    between atoms: _123  and  _124
REMARK   50  A    between atoms: _124  and  _125
REMARK   51  A    between atoms: _125  and  _126
REMARK   52  A    between atoms: _126  and  _127
REMARK   53  A    between atoms: _131  and  _133
REMARK   54  A    between atoms: _133  and  _134
REMARK   55  A    between atoms: _133  and  _136
REMARK   56  A    between atoms: _136  and  _137
REMARK   57  A    between atoms: _137  and  _138
REMARK   58  A    between atoms: _138  and  _139
REMARK   59  A    between atoms: _139  and  _140
REMARK   60  A    between atoms: _144  and  _146
REMARK   61  A    between atoms: _146  and  _147
REMARK   62  A    between atoms: _146  and  _149
REMARK   63  A    between atoms: _149  and  _150
REMARK   64  A    between atoms: _153  and  _155
REMARK   65  A    between atoms: _155  and  _156
REMARK   66  A    between atoms: _155  and  _158
REMARK   67  A    between atoms: _158  and  _159
REMARK   68  A    between atoms: _164  and  _165
REMARK   69  A    between atoms: _167  and  _169
REMARK   70  A    between atoms: _169  and  _170
REMARK   71  A    between atoms: _169  and  _172
REMARK   72  A    between atoms: _172  and  _173
REMARK   73  A    between atoms: _178  and  _180
REMARK   74  A    between atoms: _180  and  _181
REMARK   75  A    between atoms: _180  and  _183
REMARK   76  A    between atoms: _183  and  _184
REMARK   77  A    between atoms: _184  and  _185
REMARK   78  A    between atoms: _190  and  _192
REMARK   79  A    between atoms: _192  and  _193
REMARK   80  A    between atoms: _192  and  _195
REMARK   81  A    between atoms: _195  and  _196
REMARK   82  A    between atoms: _206  and  _208
REMARK   83  A    between atoms: _208  and  _209
REMARK   84  A    between atoms: _208  and  _211
REMARK   85  A    between atoms: _211  and  _212
REMARK   86  A    between atoms: _212  and  _213
REMARK   87  A    between atoms: _213  and  _215
REMARK   88  A    between atoms: _215  and  MG_372
REMARK   89  A    between atoms: _216  and  _218
REMARK   90  A    between atoms: _218  and  _219
REMARK   91  A    between atoms: _218  and  _221
REMARK   92  A    between atoms: _221  and  _222
REMARK   93  A    between atoms: _222  and  _223
REMARK   94  A    between atoms: _226  and  _228
REMARK   95  A    between atoms: _228  and  _229
REMARK   96  A    between atoms: _228  and  _231
REMARK   97  A    between atoms: _231  and  _232
REMARK   98  A    between atoms: _232  and  _233
REMARK   99  A    between atoms: _238  and  _240
REMARK  100  A    between atoms: _240  and  _241
REMARK  101  A    between atoms: _240  and  _243
REMARK  102  A    between atoms: _243  and  _244
REMARK  103  A    between atoms: _244  and  _245
REMARK  104  A    between atoms: _245  and  _246
REMARK  105  A    between atoms: _246  and  MG_372
REMARK  106  A    between atoms: _248  and  _250
REMARK  107  A    between atoms: _250  and  _251
REMARK  108  A    between atoms: _250  and  _253
REMARK  109  A    between atoms: _253  and  _254
REMARK  110  A    between atoms: _259  and  _261
REMARK  111  A    between atoms: _261  and  _262
REMARK  112  A    between atoms: _261  and  _264
REMARK  113  A    between atoms: _264  and  _265
REMARK  114  A    between atoms: _265  and  _266
REMARK  115  A    between atoms: _268  and  _270
REMARK  116  A    between atoms: _270  and  _271
REMARK  117  A    between atoms: _270  and  _273
REMARK  118  A    between atoms: _273  and  _274
REMARK  119  A    between atoms: _277  and  _279
REMARK  120  A    between atoms: _279  and  _280
REMARK  121  A    between atoms: _279  and  _282
REMARK  122  A    between atoms: _282  and  _283
REMARK  123  A    between atoms: _283  and  _284
REMARK  124  A    between atoms: _284  and  _285
REMARK  125  A    between atoms: _285  and  _286
REMARK  126  A    between atoms: _290  and  _292
REMARK  127  A    between atoms: _292  and  _293
REMARK  128  A    between atoms: _292  and  _295
REMARK  129  A    between atoms: _295  and  _296
REMARK  130  A    between atoms: _298  and  _300
REMARK  131  A    between atoms: _300  and  _301
REMARK  132  A    between atoms: _300  and  _303
REMARK  133  A    between atoms: _303  and  _304
REMARK  134  A    between atoms: _309  and  _311
REMARK  135  A    between atoms: _311  and  _312
REMARK  136  A    between atoms: _311  and  _314
REMARK  137  A    between atoms: _314  and  _315
REMARK  138  A    between atoms: _318  and  _320
REMARK  139  A    between atoms: _320  and  _321
REMARK  140  A    between atoms: _320  and  _323
REMARK  141  A    between atoms: _323  and  _324
REMARK  142  A    between atoms: _324  and  _325
REMARK  143  A    between atoms: _328  and  _330
REMARK  144  A    between atoms: _330  and  _331
REMARK  145  A    between atoms: _330  and  _333
REMARK  146  A    between atoms: _333  and  _334
REMARK  147  A    between atoms: _334  and  _335
REMARK  148  A    between atoms: _335  and  _336
REMARK  149  A    between atoms: _345  and  _347
REMARK  150  A    between atoms: _347  and  _348
REMARK  151  A    between atoms: _347  and  _350
REMARK  152  A    between atoms: _350  and  _351
REMARK  153  A    between atoms: _354  and  _356
REMARK  154  A    between atoms: _356  and  _357
REMARK  155  A    between atoms: _356  and  _359
REMARK  156  A    between atoms: _359  and  _360
REMARK  157  A    between atoms: _363  and  _365
REMARK  158  A    between atoms: _365  and  _366
REMARK  159  A    between atoms: _365  and  _368
REMARK  160  A    between atoms: _368  and  _369
REMARK                            x       y       z     vdW  Elec       q    Type
REMARK                         _______ _______ _______ _____ _____    ______ ____
ROOT
ATOM      1  CB  GLN A   1     -17.477  10.633 -24.437  0.00  0.00    +0.035 C 
ENDROOT
BRANCH   1   2
ATOM      2  CA  GLN A   1     -16.462  10.442 -25.564  0.00  0.00    +0.134 C 
BRANCH   2   3
ATOM      3  N   GLN A   1     -15.175  10.161 -24.954  0.00  0.00    -0.239 NA
ATOM      4  H   GLN A   1     -14.838  10.815 -24.219  0.00  0.00    +0.142 HD
ENDBRANCH   2   3
BRANCH   2   5
ATOM      5  C   GLN A   1     -16.363  11.702 -26.411  0.00  0.00    +0.224 C 
ATOM      6  O   GLN A   1     -15.736  12.679 -26.029  0.00  0.00    -0.287 OA
ENDBRANCH   2   5
ENDBRANCH   1   2
BRANCH   1   7
ATOM      7  CG  GLN A   1     -18.839  11.160 -24.788  0.00  0.00    +0.087 C 
BRANCH   7   8
ATOM      8  CD  GLN A   1     -19.609  10.145 -25.569  0.00  0.00    +0.219 C 
ATOM      9  NE2 GLN A   1     -20.578   9.520 -24.940  0.00  0.00    -0.329 N 
ATOM     10 HE21 GLN A   1     -20.770   9.731 -23.940  0.00  0.00    +0.145 HD
ATOM     11 HE22 GLN A   1     -21.154   8.814 -25.442  0.00  0.00    +0.145 HD
ATOM     12  OE1 GLN A   1     -19.332   9.936 -26.764  0.00  0.00    -0.275 OA
ENDBRANCH   7   8
ENDBRANCH   1   7
TORSDOF 5
REMARK  Name = ../refined-set-2016/4m6u/4m6u_pocket.pdb
REMARK  160 active torsions:
REMARK  status: ('A' for Active; 'I' for Inactive)
REMARK    1  A    between atoms: _1  and  _3
REMARK    2  A    between atoms: _3  and  _4
REMARK    3  A    between atoms: _3  and  _6
REMARK    4  A    between atoms: _9  and  _11
REMARK    5  A    between atoms: _11  and  _12
REMARK    6  A    between atoms: _11  and  _14
REMARK    7  A    between atoms: _14  and  _15
REMARK    8  A    between atoms: _20  and  _22
REMARK    9  A    between atoms: _22  and  _23
REMARK   10  A    between atoms: _22  and  _25
REMARK   11  A    between atoms: _25  and  _26
REMARK   12  A    between atoms: _29  and  _31
REMARK   13  A    between atoms: _31  and  _32
REMARK   14  A    between atoms: _35  and  _37
REMARK   15  A    between atoms: _37  and  _38
REMARK   16  A    between atoms: _37  and  _40
REMARK   17  A    between atoms: _43  and  _45
REMARK   18  A    between atoms: _45  and  _46
REMARK   19  A    between atoms: _45  and  _48
REMARK   20  A    between atoms: _51  and  _53
REMARK   21  A    between atoms: _53  and  _54
REMARK   22  A    between atoms: _53  and  _56
REMARK   23  A    between atoms: _56  and  _57
REMARK   24  A    between atoms: _63  and  _65
REMARK   25  A    between atoms: _65  and  _66
REMARK   26  A    between atoms: _65  and  _68
REMARK   27  A    between atoms: _68  and  _69
REMARK   28  A    between atoms: _74  and  _75
REMARK   29  A    between atoms: _77  and  _79
REMARK   30  A    between atoms: _79  and  _80
REMARK   31  A    between atoms: _79  and  _82
REMARK   32  A    between atoms: _82  and  _83
REMARK   33  A    between atoms: _88  and  _89
REMARK   34  A    between atoms: _91  and  _93
REMARK   35  A    between atoms: _93  and  _94
REMARK   36  A    between atoms: _93  and  _96
REMARK   37  A    between atoms: _96  and  _97
REMARK   38  A    between atoms: _99  and  _101
REMARK   39  A    between atoms: _101  and  _102
REMARK   40  A    between atoms: _101  and  _104
REMARK   41  A    between atoms: _104  and  _105
REMARK   42  A    between atoms: _110  and  _112
REMARK   43  A    between atoms: _112  and  _113
REMARK   44  A    between atoms: _112  and  _115
REMARK   45  A    between atoms: _115  and  _116
REMARK   46  A    between atoms: _118  and  _120
REMARK   47  A    between atoms: _120  and  _121
REMARK   48  A    between atoms: _120  and  _123
REMARK   49  A    between atoms: _123  and  _124
REMARK   50  A    between atoms: _124  and  _125
REMARK   51  A    between atoms: _125  and  _126
REMARK   52  A    between atoms: _126  and  _127
REMARK   53  A    between atoms: _131  and  _133
REMARK   54  A    between atoms: _133  and  _134
REMARK   55  A    between atoms: _133  and  _136
REMARK   56  A    between atoms: _136  and  _137
REMARK   57  A    between atoms: _137  and  _138
REMARK   58  A    between atoms: _138  and  _139
REMARK   59  A    between atoms: _139  and  _140
REMARK   60  A    between atoms: _144  and  _146
REMARK   61  A    between atoms: _146  and  _147
REMARK   62  A    between atoms: _146  and  _149
REMARK   63  A    between atoms: _149  and  _150
REMARK   64  A    between atoms: _153  and  _155
REMARK   65  A    between atoms: _155  and  _156
REMARK   66  A    between atoms: _155  and  _158
REMARK   67  A    between atoms: _158  and  _159
REMARK   68  A    between atoms: _164  and  _165
REMARK   69  A    between atoms: _167  and  _169
REMARK   70  A    between atoms: _169  and  _170
REMARK   71  A    between atoms: _169  and  _172
REMARK   72  A    between atoms: _172  and  _173
REMARK   73  A    between atoms: _178  and  _180
REMARK   74  A    between atoms: _180  and  _181
REMARK   75  A    between atoms: _180  and  _183
REMARK   76  A    between atoms: _183  and  _184
REMARK   77  A    between atoms: _184  and  _185
REMARK   78  A    between atoms: _190  and  _192
REMARK   79  A    between atoms: _192  and  _193
REMARK   80  A    between atoms: _192  and  _195
REMARK   81  A    between atoms: _195  and  _196
REMARK   82  A    between atoms: _206  and  _208
REMARK   83  A    between atoms: _208  and  _209
REMARK   84  A    between atoms: _208  and  _211
REMARK   85  A    between atoms: _211  and  _212
REMARK   86  A    between atoms: _212  and  _213
REMARK   87  A    between atoms: _213  and  _215
REMARK   88  A    between atoms: _215  and  MG_372
REMARK   89  A    between atoms: _216  and  _218
REMARK   90  A    between atoms: _218  and  _219
REMARK   91  A    between atoms: _218  and  _221
REMARK   92  A    between atoms: _221  and  _222
REMARK   93  A    between atoms: _222  and  _223
REMARK   94  A    between atoms: _226  and  _228
REMARK   95  A    between atoms: _228  and  _229
REMARK   96  A    between atoms: _228  and  _231
REMARK   97  A    between atoms: _231  and  _232
REMARK   98  A    between atoms: _232  and  _233
REMARK   99  A    between atoms: _238  and  _240
REMARK  100  A    between atoms: _240  and  _241
REMARK  101  A    between atoms: _240  and  _243
REMARK  102  A    between atoms: _243  and  _244
REMARK  103  A    between atoms: _244  and  _245
REMARK  104  A    between atoms: _245  and  _246
REMARK  105  A    between atoms: _246  and  MG_372
REMARK  106  A    between atoms: _248  and  _250
REMARK  107  A    between atoms: _250  and  _251
REMARK  108  A    between atoms: _250  and  _253
REMARK  109  A    between atoms: _253  and  _254
REMARK  110  A    between atoms: _259  and  _261
REMARK  111  A    between atoms: _261  and  _262
REMARK  112  A    between atoms: _261  and  _264
REMARK  113  A    between atoms: _264  and  _265
REMARK  114  A    between atoms: _265  and  _266
REMARK  115  A    between atoms: _268  and  _270
REMARK  116  A    between atoms: _270  and  _271
REMARK  117  A    between atoms: _270  and  _273
REMARK  118  A    between atoms: _273  and  _274
REMARK  119  A    between atoms: _277  and  _279
REMARK  120  A    between atoms: _279  and  _280
REMARK  121  A    between atoms: _279  and  _282
REMARK  122  A    between atoms: _282  and  _283
REMARK  123  A    between atoms: _283  and  _284
REMARK  124  A    between atoms: _284  and  _285
REMARK  125  A    between atoms: _285  and  _286
REMARK  126  A    between atoms: _290  and  _292
REMARK  127  A    between atoms: _292  and  _293
REMARK  128  A    between atoms: _292  and  _295
REMARK  129  A    between atoms: _295  and  _296
REMARK  130  A    between atoms: _298  and  _300
REMARK  131  A    between atoms: _300  and  _301
REMARK  132  A    between atoms: _300  and  _303
REMARK  133  A    between atoms: _303  and  _304
REMARK  134  A    between atoms: _309  and  _311
REMARK  135  A    between atoms: _311  and  _312
REMARK  136  A    between atoms: _311  and  _314
REMARK  137  A    between atoms: _314  and  _315
REMARK  138  A    between atoms: _318  and  _320
REMARK  139  A    between atoms: _320  and  _321
REMARK  140  A    between atoms: _320  and  _323
REMARK  141  A    between atoms: _323  and  _324
REMARK  142  A    between atoms: _324  and  _325
REMARK  143  A    between atoms: _328  and  _330
REMARK  144  A    between atoms: _330  and  _331
REMARK  145  A    between atoms: _330  and  _333
REMARK  146  A    between atoms: _333  and  _334
REMARK  147  A    between atoms: _334  and  _335
REMARK  148  A    between atoms: _335  and  _336
REMARK  149  A    between atoms: _345  and  _347
REMARK  150  A    between atoms: _347  and  _348
REMARK  151  A    between atoms: _347  and  _350
REMARK  152  A    between atoms: _350  and  _351
REMARK  153  A    between atoms: _354  and  _356
REMARK  154  A    between atoms: _356  and  _357
REMARK  155  A    between atoms: _356  and  _359
REMARK  156  A    between atoms: _359  and  _360
REMARK  157  A    between atoms: _363  and  _365
REMARK  158  A    between atoms: _365  and  _366
REMARK  159  A    between atoms: _365  and  _368
REMARK  160  A    between atoms: _368  and  _369
REMARK                            x       y       z     vdW  Elec       q    Type
REMARK                         _______ _______ _______ _____ _____    ______ ____
ROOT
ATOM      1  CA  MET A   1     -22.676  11.259 -28.887  0.00  0.00    +0.134 C 
ENDROOT
BRANCH   1   2
ATOM      2  N   MET A   1     -21.450  10.514 -29.223  0.00  0.00    -0.239 NA
ATOM      3  H   MET A   1     -20.675  11.013 -29.704  0.00  0.00    +0.142 HD
ENDBRANCH   1   2
BRANCH   1   4
ATOM      4  C   MET A   1     -23.047  12.325 -29.921  0.00  0.00    +0.224 C 
ATOM      5  O   MET A   1     -22.788  13.525 -29.745  0.00  0.00    -0.287 OA
ENDBRANCH   1   4
BRANCH   1   6
ATOM      6  CB  MET A   1     -22.619  11.836 -27.480  0.00  0.00    +0.037 C 
BRANCH   6   7
ATOM      7  CG  MET A   1     -21.392  12.696 -27.228  0.00  0.00    +0.059 C 
BRANCH   7   8
ATOM      8  SD  MET A   1     -21.307  13.388 -25.525  0.00  0.00    -0.139 S 
ATOM      9  CE  MET A   1     -22.495  14.741 -25.717  0.00  0.00    +0.069 C 
ENDBRANCH   7   8
ENDBRANCH   6   7
ENDBRANCH   1   6
TORSDOF 5
REMARK  Name = ../refined-set-2016/4m6u/4m6u_pocket.pdb
REMARK  160 active torsions:
REMARK  status: ('A' for Active; 'I' for Inactive)
REMARK    1  A    between atoms: _1  and  _3
REMARK    2  A    between atoms: _3  and  _4
REMARK    3  A    between atoms: _3  and  _6
REMARK    4  A    between atoms: _9  and  _11
REMARK    5  A    between atoms: _11  and  _12
REMARK    6  A    between atoms: _11  and  _14
REMARK    7  A    between atoms: _14  and  _15
REMARK    8  A    between atoms: _20  and  _22
REMARK    9  A    between atoms: _22  and  _23
REMARK   10  A    between atoms: _22  and  _25
REMARK   11  A    between atoms: _25  and  _26
REMARK   12  A    between atoms: _29  and  _31
REMARK   13  A    between atoms: _31  and  _32
REMARK   14  A    between atoms: _35  and  _37
REMARK   15  A    between atoms: _37  and  _38
REMARK   16  A    between atoms: _37  and  _40
REMARK   17  A    between atoms: _43  and  _45
REMARK   18  A    between atoms: _45  and  _46
REMARK   19  A    between atoms: _45  and  _48
REMARK   20  A    between atoms: _51  and  _53
REMARK   21  A    between atoms: _53  and  _54
REMARK   22  A    between atoms: _53  and  _56
REMARK   23  A    between atoms: _56  and  _57
REMARK   24  A    between atoms: _63  and  _65
REMARK   25  A    between atoms: _65  and  _66
REMARK   26  A    between atoms: _65  and  _68
REMARK   27  A    between atoms: _68  and  _69
REMARK   28  A    between atoms: _74  and  _75
REMARK   29  A    between atoms: _77  and  _79
REMARK   30  A    between atoms: _79  and  _80
REMARK   31  A    between atoms: _79  and  _82
REMARK   32  A    between atoms: _82  and  _83
REMARK   33  A    between atoms: _88  and  _89
REMARK   34  A    between atoms: _91  and  _93
REMARK   35  A    between atoms: _93  and  _94
REMARK   36  A    between atoms: _93  and  _96
REMARK   37  A    between atoms: _96  and  _97
REMARK   38  A    between atoms: _99  and  _101
REMARK   39  A    between atoms: _101  and  _102
REMARK   40  A    between atoms: _101  and  _104
REMARK   41  A    between atoms: _104  and  _105
REMARK   42  A    between atoms: _110  and  _112
REMARK   43  A    between atoms: _112  and  _113
REMARK   44  A    between atoms: _112  and  _115
REMARK   45  A    between atoms: _115  and  _116
REMARK   46  A    between atoms: _118  and  _120
REMARK   47  A    between atoms: _120  and  _121
REMARK   48  A    between atoms: _120  and  _123
REMARK   49  A    between atoms: _123  and  _124
REMARK   50  A    between atoms: _124  and  _125
REMARK   51  A    between atoms: _125  and  _126
REMARK   52  A    between atoms: _126  and  _127
REMARK   53  A    between atoms: _131  and  _133
REMARK   54  A    between atoms: _133  and  _134
REMARK   55  A    between atoms: _133  and  _136
REMARK   56  A    between atoms: _136  and  _137
REMARK   57  A    between atoms: _137  and  _138
REMARK   58  A    between atoms: _138  and  _139
REMARK   59  A    between atoms: _139  and  _140
REMARK   60  A    between atoms: _144  and  _146
REMARK   61  A    between atoms: _146  and  _147
REMARK   62  A    between atoms: _146  and  _149
REMARK   63  A    between atoms: _149  and  _150
REMARK   64  A    between atoms: _153  and  _155
REMARK   65  A    between atoms: _155  and  _156
REMARK   66  A    between atoms: _155  and  _158
REMARK   67  A    between atoms: _158  and  _159
REMARK   68  A    between atoms: _164  and  _165
REMARK   69  A    between atoms: _167  and  _169
REMARK   70  A    between atoms: _169  and  _170
REMARK   71  A    between atoms: _169  and  _172
REMARK   72  A    between atoms: _172  and  _173
REMARK   73  A    between atoms: _178  and  _180
REMARK   74  A    between atoms: _180  and  _181
REMARK   75  A    between atoms: _180  and  _183
REMARK   76  A    between atoms: _183  and  _184
REMARK   77  A    between atoms: _184  and  _185
REMARK   78  A    between atoms: _190  and  _192
REMARK   79  A    between atoms: _192  and  _193
REMARK   80  A    between atoms: _192  and  _195
REMARK   81  A    between atoms: _195  and  _196
REMARK   82  A    between atoms: _206  and  _208
REMARK   83  A    between atoms: _208  and  _209
REMARK   84  A    between atoms: _208  and  _211
REMARK   85  A    between atoms: _211  and  _212
REMARK   86  A    between atoms: _212  and  _213
REMARK   87  A    between atoms: _213  and  _215
REMARK   88  A    between atoms: _215  and  MG_372
REMARK   89  A    between atoms: _216  and  _218
REMARK   90  A    between atoms: _218  and  _219
REMARK   91  A    between atoms: _218  and  _221
REMARK   92  A    between atoms: _221  and  _222
REMARK   93  A    between atoms: _222  and  _223
REMARK   94  A    between atoms: _226  and  _228
REMARK   95  A    between atoms: _228  and  _229
REMARK   96  A    between atoms: _228  and  _231
REMARK   97  A    between atoms: _231  and  _232
REMARK   98  A    between atoms: _232  and  _233
REMARK   99  A    between atoms: _238  and  _240
REMARK  100  A    between atoms: _240  and  _241
REMARK  101  A    between atoms: _240  and  _243
REMARK  102  A    between atoms: _243  and  _244
REMARK  103  A    between atoms: _244  and  _245
REMARK  104  A    between atoms: _245  and  _246
REMARK  105  A    between atoms: _246  and  MG_372
REMARK  106  A    between atoms: _248  and  _250
REMARK  107  A    between atoms: _250  and  _251
REMARK  108  A    between atoms: _250  and  _253
REMARK  109  A    between atoms: _253  and  _254
REMARK  110  A    between atoms: _259  and  _261
REMARK  111  A    between atoms: _261  and  _262
REMARK  112  A    between atoms: _261  and  _264
REMARK  113  A    between atoms: _264  and  _265
REMARK  114  A    between atoms: _265  and  _266
REMARK  115  A    between atoms: _268  and  _270
REMARK  116  A    between atoms: _270  and  _271
REMARK  117  A    between atoms: _270  and  _273
REMARK  118  A    between atoms: _273  and  _274
REMARK  119  A    between atoms: _277  and  _279
REMARK  120  A    between atoms: _279  and  _280
REMARK  121  A    between atoms: _279  and  _282
REMARK  122  A    between atoms: _282  and  _283
REMARK  123  A    between atoms: _283  and  _284
REMARK  124  A    between atoms: _284  and  _285
REMARK  125  A    between atoms: _285  and  _286
REMARK  126  A    between atoms: _290  and  _292
REMARK  127  A    between atoms: _292  and  _293
REMARK  128  A    between atoms: _292  and  _295
REMARK  129  A    between atoms: _295  and  _296
REMARK  130  A    between atoms: _298  and  _300
REMARK  131  A    between atoms: _300  and  _301
REMARK  132  A    between atoms: _300  and  _303
REMARK  133  A    between atoms: _303  and  _304
REMARK  134  A    between atoms: _309  and  _311
REMARK  135  A    between atoms: _311  and  _312
REMARK  136  A    between atoms: _311  and  _314
REMARK  137  A    between atoms: _314  and  _315
REMARK  138  A    between atoms: _318  and  _320
REMARK  139  A    between atoms: _320  and  _321
REMARK  140  A    between atoms: _320  and  _323
REMARK  141  A    between atoms: _323  and  _324
REMARK  142  A    between atoms: _324  and  _325
REMARK  143  A    between atoms: _328  and  _330
REMARK  144  A    between atoms: _330  and  _331
REMARK  145  A    between atoms: _330  and  _333
REMARK  146  A    between atoms: _333  and  _334
REMARK  147  A    between atoms: _334  and  _335
REMARK  148  A    between atoms: _335  and  _336
REMARK  149  A    between atoms: _345  and  _347
REMARK  150  A    between atoms: _347  and  _348
REMARK  151  A    between atoms: _347  and  _350
REMARK  152  A    between atoms: _350  and  _351
REMARK  153  A    between atoms: _354  and  _356
REMARK  154  A    between atoms: _356  and  _357
REMARK  155  A    between atoms: _356  and  _359
REMARK  156  A    between atoms: _359  and  _360
REMARK  157  A    between atoms: _363  and  _365
REMARK  158  A    between atoms: _365  and  _366
REMARK  159  A    between atoms: _365  and  _368
REMARK  160  A    between atoms: _368  and  _369
REMARK                            x       y       z     vdW  Elec       q    Type
REMARK                         _______ _______ _______ _____ _____    ______ ____
ROOT
ATOM      1  CA  ASP A   1     -26.005  16.103 -31.863  0.00  0.00    +0.144 C 
ENDROOT
BRANCH   1   2
ATOM      2  N   ASP A   1     -24.997  15.023 -32.123  0.00  0.00    -0.239 NA
ATOM      3  H   ASP A   1     -24.238  15.210 -32.809  0.00  0.00    +0.142 HD
ENDBRANCH   1   2
BRANCH   1   4
ATOM      4  C   ASP A   1     -27.074  15.995 -32.958  0.00  0.00    +0.225 C 
ATOM      5  O   ASP A   1     -26.753  16.013 -34.168  0.00  0.00    -0.287 OA
ENDBRANCH   1   4
BRANCH   1   6
ATOM      6  CB  ASP A   1     -25.284  17.445 -31.888  0.00  0.00    +0.139 C 
BRANCH   6   7
ATOM      7  CG  ASP A   1     -26.214  18.631 -31.739  0.00  0.00    +0.367 C 
ATOM      8  OD2 ASP A   1     -26.334  19.149 -30.600  0.00  0.00    -0.246 OA
ATOM      9  OD1 ASP A   1     -26.794  19.044 -32.751  0.00  0.00    -0.246 OA
ENDBRANCH   6   7
ENDBRANCH   1   6
TORSDOF 4
REMARK  Name = ../refined-set-2016/4m6u/4m6u_pocket.pdb
REMARK  160 active torsions:
REMARK  status: ('A' for Active; 'I' for Inactive)
REMARK    1  A    between atoms: _1  and  _3
REMARK    2  A    between atoms: _3  and  _4
REMARK    3  A    between atoms: _3  and  _6
REMARK    4  A    between atoms: _9  and  _11
REMARK    5  A    between atoms: _11  and  _12
REMARK    6  A    between atoms: _11  and  _14
REMARK    7  A    between atoms: _14  and  _15
REMARK    8  A    between atoms: _20  and  _22
REMARK    9  A    between atoms: _22  and  _23
REMARK   10  A    between atoms: _22  and  _25
REMARK   11  A    between atoms: _25  and  _26
REMARK   12  A    between atoms: _29  and  _31
REMARK   13  A    between atoms: _31  and  _32
REMARK   14  A    between atoms: _35  and  _37
REMARK   15  A    between atoms: _37  and  _38
REMARK   16  A    between atoms: _37  and  _40
REMARK   17  A    between atoms: _43  and  _45
REMARK   18  A    between atoms: _45  and  _46
REMARK   19  A    between atoms: _45  and  _48
REMARK   20  A    between atoms: _51  and  _53
REMARK   21  A    between atoms: _53  and  _54
REMARK   22  A    between atoms: _53  and  _56
REMARK   23  A    between atoms: _56  and  _57
REMARK   24  A    between atoms: _63  and  _65
REMARK   25  A    between atoms: _65  and  _66
REMARK   26  A    between atoms: _65  and  _68
REMARK   27  A    between atoms: _68  and  _69
REMARK   28  A    between atoms: _74  and  _75
REMARK   29  A    between atoms: _77  and  _79
REMARK   30  A    between atoms: _79  and  _80
REMARK   31  A    between atoms: _79  and  _82
REMARK   32  A    between atoms: _82  and  _83
REMARK   33  A    between atoms: _88  and  _89
REMARK   34  A    between atoms: _91  and  _93
REMARK   35  A    between atoms: _93  and  _94
REMARK   36  A    between atoms: _93  and  _96
REMARK   37  A    between atoms: _96  and  _97
REMARK   38  A    between atoms: _99  and  _101
REMARK   39  A    between atoms: _101  and  _102
REMARK   40  A    between atoms: _101  and  _104
REMARK   41  A    between atoms: _104  and  _105
REMARK   42  A    between atoms: _110  and  _112
REMARK   43  A    between atoms: _112  and  _113
REMARK   44  A    between atoms: _112  and  _115
REMARK   45  A    between atoms: _115  and  _116
REMARK   46  A    between atoms: _118  and  _120
REMARK   47  A    between atoms: _120  and  _121
REMARK   48  A    between atoms: _120  and  _123
REMARK   49  A    between atoms: _123  and  _124
REMARK   50  A    between atoms: _124  and  _125
REMARK   51  A    between atoms: _125  and  _126
REMARK   52  A    between atoms: _126  and  _127
REMARK   53  A    between atoms: _131  and  _133
REMARK   54  A    between atoms: _133  and  _134
REMARK   55  A    between atoms: _133  and  _136
REMARK   56  A    between atoms: _136  and  _137
REMARK   57  A    between atoms: _137  and  _138
REMARK   58  A    between atoms: _138  and  _139
REMARK   59  A    between atoms: _139  and  _140
REMARK   60  A    between atoms: _144  and  _146
REMARK   61  A    between atoms: _146  and  _147
REMARK   62  A    between atoms: _146  and  _149
REMARK   63  A    between atoms: _149  and  _150
REMARK   64  A    between atoms: _153  and  _155
REMARK   65  A    between atoms: _155  and  _156
REMARK   66  A    between atoms: _155  and  _158
REMARK   67  A    between atoms: _158  and  _159
REMARK   68  A    between atoms: _164  and  _165
REMARK   69  A    between atoms: _167  and  _169
REMARK   70  A    between atoms: _169  and  _170
REMARK   71  A    between atoms: _169  and  _172
REMARK   72  A    between atoms: _172  and  _173
REMARK   73  A    between atoms: _178  and  _180
REMARK   74  A    between atoms: _180  and  _181
REMARK   75  A    between atoms: _180  and  _183
REMARK   76  A    between atoms: _183  and  _184
REMARK   77  A    between atoms: _184  and  _185
REMARK   78  A    between atoms: _190  and  _192
REMARK   79  A    between atoms: _192  and  _193
REMARK   80  A    between atoms: _192  and  _195
REMARK   81  A    between atoms: _195  and  _196
REMARK   82  A    between atoms: _206  and  _208
REMARK   83  A    between atoms: _208  and  _209
REMARK   84  A    between atoms: _208  and  _211
REMARK   85  A    between atoms: _211  and  _212
REMARK   86  A    between atoms: _212  and  _213
REMARK   87  A    between atoms: _213  and  _215
REMARK   88  A    between atoms: _215  and  MG_372
REMARK   89  A    between atoms: _216  and  _218
REMARK   90  A    between atoms: _218  and  _219
REMARK   91  A    between atoms: _218  and  _221
REMARK   92  A    between atoms: _221  and  _222
REMARK   93  A    between atoms: _222  and  _223
REMARK   94  A    between atoms: _226  and  _228
REMARK   95  A    between atoms: _228  and  _229
REMARK   96  A    between atoms: _228  and  _231
REMARK   97  A    between atoms: _231  and  _232
REMARK   98  A    between atoms: _232  and  _233
REMARK   99  A    between atoms: _238  and  _240
REMARK  100  A    between atoms: _240  and  _241
REMARK  101  A    between atoms: _240  and  _243
REMARK  102  A    between atoms: _243  and  _244
REMARK  103  A    between atoms: _244  and  _245
REMARK  104  A    between atoms: _245  and  _246
REMARK  105  A    between atoms: _246  and  MG_372
REMARK  106  A    between atoms: _248  and  _250
REMARK  107  A    between atoms: _250  and  _251
REMARK  108  A    between atoms: _250  and  _253
REMARK  109  A    between atoms: _253  and  _254
REMARK  110  A    between atoms: _259  and  _261
REMARK  111  A    between atoms: _261  and  _262
REMARK  112  A    between atoms: _261  and  _264
REMARK  113  A    between atoms: _264  and  _265
REMARK  114  A    between atoms: _265  and  _266
REMARK  115  A    between atoms: _268  and  _270
REMARK  116  A    between atoms: _270  and  _271
REMARK  117  A    between atoms: _270  and  _273
REMARK  118  A    between atoms: _273  and  _274
REMARK  119  A    between atoms: _277  and  _279
REMARK  120  A    between atoms: _279  and  _280
REMARK  121  A    between atoms: _279  and  _282
REMARK  122  A    between atoms: _282  and  _283
REMARK  123  A    between atoms: _283  and  _284
REMARK  124  A    between atoms: _284  and  _285
REMARK  125  A    between atoms: _285  and  _286
REMARK  126  A    between atoms: _290  and  _292
REMARK  127  A    between atoms: _292  and  _293
REMARK  128  A    between atoms: _292  and  _295
REMARK  129  A    between atoms: _295  and  _296
REMARK  130  A    between atoms: _298  and  _300
REMARK  131  A    between atoms: _300  and  _301
REMARK  132  A    between atoms: _300  and  _303
REMARK  133  A    between atoms: _303  and  _304
REMARK  134  A    between atoms: _309  and  _311
REMARK  135  A    between atoms: _311  and  _312
REMARK  136  A    between atoms: _311  and  _314
REMARK  137  A    between atoms: _314  and  _315
REMARK  138  A    between atoms: _318  and  _320
REMARK  139  A    between atoms: _320  and  _321
REMARK  140  A    between atoms: _320  and  _323
REMARK  141  A    between atoms: _323  and  _324
REMARK  142  A    between atoms: _324  and  _325
REMARK  143  A    between atoms: _328  and  _330
REMARK  144  A    between atoms: _330  and  _331
REMARK  145  A    between atoms: _330  and  _333
REMARK  146  A    between atoms: _333  and  _334
REMARK  147  A    between atoms: _334  and  _335
REMARK  148  A    between atoms: _335  and  _336
REMARK  149  A    between atoms: _345  and  _347
REMARK  150  A    between atoms: _347  and  _348
REMARK  151  A    between atoms: _347  and  _350
REMARK  152  A    between atoms: _350  and  _351
REMARK  153  A    between atoms: _354  and  _356
REMARK  154  A    between atoms: _356  and  _357
REMARK  155  A    between atoms: _356  and  _359
REMARK  156  A    between atoms: _359  and  _360
REMARK  157  A    between atoms: _363  and  _365
REMARK  158  A    between atoms: _365  and  _366
REMARK  159  A    between atoms: _365  and  _368
REMARK  160  A    between atoms: _368  and  _369
REMARK                            x       y       z     vdW  Elec       q    Type
REMARK                         _______ _______ _______ _____ _____    ______ ____
ROOT
ATOM      1  CG  LYS A   1     -23.894  20.566 -34.954  0.00  0.00    -0.000 C 
ENDROOT
BRANCH   1   2
ATOM      2  CB  LYS A   1     -23.985  19.128 -35.496  0.00  0.00    +0.025 C 
BRANCH   2   3
ATOM      3  CA  LYS A   1     -25.192  18.832 -36.381  0.00  0.00    +0.133 C 
BRANCH   3   4
ATOM      4  N   LYS A   1     -26.486  18.904 -35.604  0.00  0.00    -0.239 NA
ATOM      5  H   LYS A   1     -26.472  19.013 -34.570  0.00  0.00    +0.142 HD
ENDBRANCH   3   4
BRANCH   3   6
ATOM      6  C   LYS A   1     -24.968  17.564 -37.206  0.00  0.00    +0.224 C 
ATOM      7  O   LYS A   1     -24.410  17.624 -38.295  0.00  0.00    -0.287 OA
ENDBRANCH   3   6
ENDBRANCH   2   3
ENDBRANCH   1   2
BRANCH   1   8
ATOM      8  CD  LYS A   1     -22.490  20.897 -34.475  0.00  0.00    -0.024 C 
BRANCH   8   9
ATOM      9  CE  LYS A   1     -22.286  22.355 -34.137  0.00  0.00    -0.086 C 
BRANCH   9  10
ATOM     10  NZ  LYS A   1     -20.978  22.604 -33.512  0.00  0.00    +0.380 N 
ATOM     11  HZ1 LYS A   1     -20.906  22.055 -32.632  0.00  0.00    -0.089 HD
ATOM     12  HZ2 LYS A   1     -20.884  23.618 -33.299  0.00  0.00    -0.089 HD
ATOM     13  HZ3 LYS A   1     -20.222  22.315 -34.165  0.00  0.00    -0.089 HD
ENDBRANCH   9  10
ENDBRANCH   8   9
ENDBRANCH   1   8
TORSDOF 7
REMARK  Name = ../refined-set-2016/4m6u/4m6u_pocket.pdb
REMARK  160 active torsions:
REMARK  status: ('A' for Active; 'I' for Inactive)
REMARK    1  A    between atoms: _1  and  _3
REMARK    2  A    between atoms: _3  and  _4
REMARK    3  A    between atoms: _3  and  _6
REMARK    4  A    between atoms: _9  and  _11
REMARK    5  A    between atoms: _11  and  _12
REMARK    6  A    between atoms: _11  and  _14
REMARK    7  A    between atoms: _14  and  _15
REMARK    8  A    between atoms: _20  and  _22
REMARK    9  A    between atoms: _22  and  _23
REMARK   10  A    between atoms: _22  and  _25
REMARK   11  A    between atoms: _25  and  _26
REMARK   12  A    between atoms: _29  and  _31
REMARK   13  A    between atoms: _31  and  _32
REMARK   14  A    between atoms: _35  and  _37
REMARK   15  A    between atoms: _37  and  _38
REMARK   16  A    between atoms: _37  and  _40
REMARK   17  A    between atoms: _43  and  _45
REMARK   18  A    between atoms: _45  and  _46
REMARK   19  A    between atoms: _45  and  _48
REMARK   20  A    between atoms: _51  and  _53
REMARK   21  A    between atoms: _53  and  _54
REMARK   22  A    between atoms: _53  and  _56
REMARK   23  A    between atoms: _56  and  _57
REMARK   24  A    between atoms: _63  and  _65
REMARK   25  A    between atoms: _65  and  _66
REMARK   26  A    between atoms: _65  and  _68
REMARK   27  A    between atoms: _68  and  _69
REMARK   28  A    between atoms: _74  and  _75
REMARK   29  A    between atoms: _77  and  _79
REMARK   30  A    between atoms: _79  and  _80
REMARK   31  A    between atoms: _79  and  _82
REMARK   32  A    between atoms: _82  and  _83
REMARK   33  A    between atoms: _88  and  _89
REMARK   34  A    between atoms: _91  and  _93
REMARK   35  A    between atoms: _93  and  _94
REMARK   36  A    between atoms: _93  and  _96
REMARK   37  A    between atoms: _96  and  _97
REMARK   38  A    between atoms: _99  and  _101
REMARK   39  A    between atoms: _101  and  _102
REMARK   40  A    between atoms: _101  and  _104
REMARK   41  A    between atoms: _104  and  _105
REMARK   42  A    between atoms: _110  and  _112
REMARK   43  A    between atoms: _112  and  _113
REMARK   44  A    between atoms: _112  and  _115
REMARK   45  A    between atoms: _115  and  _116
REMARK   46  A    between atoms: _118  and  _120
REMARK   47  A    between atoms: _120  and  _121
REMARK   48  A    between atoms: _120  and  _123
REMARK   49  A    between atoms: _123  and  _124
REMARK   50  A    between atoms: _124  and  _125
REMARK   51  A    between atoms: _125  and  _126
REMARK   52  A    between atoms: _126  and  _127
REMARK   53  A    between atoms: _131  and  _133
REMARK   54  A    between atoms: _133  and  _134
REMARK   55  A    between atoms: _133  and  _136
REMARK   56  A    between atoms: _136  and  _137
REMARK   57  A    between atoms: _137  and  _138
REMARK   58  A    between atoms: _138  and  _139
REMARK   59  A    between atoms: _139  and  _140
REMARK   60  A    between atoms: _144  and  _146
REMARK   61  A    between atoms: _146  and  _147
REMARK   62  A    between atoms: _146  and  _149
REMARK   63  A    between atoms: _149  and  _150
REMARK   64  A    between atoms: _153  and  _155
REMARK   65  A    between atoms: _155  and  _156
REMARK   66  A    between atoms: _155  and  _158
REMARK   67  A    between atoms: _158  and  _159
REMARK   68  A    between atoms: _164  and  _165
REMARK   69  A    between atoms: _167  and  _169
REMARK   70  A    between atoms: _169  and  _170
REMARK   71  A    between atoms: _169  and  _172
REMARK   72  A    between atoms: _172  and  _173
REMARK   73  A    between atoms: _178  and  _180
REMARK   74  A    between atoms: _180  and  _181
REMARK   75  A    between atoms: _180  and  _183
REMARK   76  A    between atoms: _183  and  _184
REMARK   77  A    between atoms: _184  and  _185
REMARK   78  A    between atoms: _190  and  _192
REMARK   79  A    between atoms: _192  and  _193
REMARK   80  A    between atoms: _192  and  _195
REMARK   81  A    between atoms: _195  and  _196
REMARK   82  A    between atoms: _206  and  _208
REMARK   83  A    between atoms: _208  and  _209
REMARK   84  A    between atoms: _208  and  _211
REMARK   85  A    between atoms: _211  and  _212
REMARK   86  A    between atoms: _212  and  _213
REMARK   87  A    between atoms: _213  and  _215
REMARK   88  A    between atoms: _215  and  MG_372
REMARK   89  A    between atoms: _216  and  _218
REMARK   90  A    between atoms: _218  and  _219
REMARK   91  A    between atoms: _218  and  _221
REMARK   92  A    between atoms: _221  and  _222
REMARK   93  A    between atoms: _222  and  _223
REMARK   94  A    between atoms: _226  and  _228
REMARK   95  A    between atoms: _228  and  _229
REMARK   96  A    between atoms: _228  and  _231
REMARK   97  A    between atoms: _231  and  _232
REMARK   98  A    between atoms: _232  and  _233
REMARK   99  A    between atoms: _238  and  _240
REMARK  100  A    between atoms: _240  and  _241
REMARK  101  A    between atoms: _240  and  _243
REMARK  102  A    between atoms: _243  and  _244
REMARK  103  A    between atoms: _244  and  _245
REMARK  104  A    between atoms: _245  and  _246
REMARK  105  A    between atoms: _246  and  MG_372
REMARK  106  A    between atoms: _248  and  _250
REMARK  107  A    between atoms: _250  and  _251
REMARK  108  A    between atoms: _250  and  _253
REMARK  109  A    between atoms: _253  and  _254
REMARK  110  A    between atoms: _259  and  _261
REMARK  111  A    between atoms: _261  and  _262
REMARK  112  A    between atoms: _261  and  _264
REMARK  113  A    between atoms: _264  and  _265
REMARK  114  A    between atoms: _265  and  _266
REMARK  115  A    between atoms: _268  and  _270
REMARK  116  A    between atoms: _270  and  _271
REMARK  117  A    between atoms: _270  and  _273
REMARK  118  A    between atoms: _273  and  _274
REMARK  119  A    between atoms: _277  and  _279
REMARK  120  A    between atoms: _279  and  _280
REMARK  121  A    between atoms: _279  and  _282
REMARK  122  A    between atoms: _282  and  _283
REMARK  123  A    between atoms: _283  and  _284
REMARK  124  A    between atoms: _284  and  _285
REMARK  125  A    between atoms: _285  and  _286
REMARK  126  A    between atoms: _290  and  _292
REMARK  127  A    between atoms: _292  and  _293
REMARK  128  A    between atoms: _292  and  _295
REMARK  129  A    between atoms: _295  and  _296
REMARK  130  A    between atoms: _298  and  _300
REMARK  131  A    between atoms: _300  and  _301
REMARK  132  A    between atoms: _300  and  _303
REMARK  133  A    between atoms: _303  and  _304
REMARK  134  A    between atoms: _309  and  _311
REMARK  135  A    between atoms: _311  and  _312
REMARK  136  A    between atoms: _311  and  _314
REMARK  137  A    between atoms: _314  and  _315
REMARK  138  A    between atoms: _318  and  _320
REMARK  139  A    between atoms: _320  and  _321
REMARK  140  A    between atoms: _320  and  _323
REMARK  141  A    between atoms: _323  and  _324
REMARK  142  A    between atoms: _324  and  _325
REMARK  143  A    between atoms: _328  and  _330
REMARK  144  A    between atoms: _330  and  _331
REMARK  145  A    between atoms: _330  and  _333
REMARK  146  A    between atoms: _333  and  _334
REMARK  147  A    between atoms: _334  and  _335
REMARK  148  A    between atoms: _335  and  _336
REMARK  149  A    between atoms: _345  and  _347
REMARK  150  A    between atoms: _347  and  _348
REMARK  151  A    between atoms: _347  and  _350
REMARK  152  A    between atoms: _350  and  _351
REMARK  153  A    between atoms: _354  and  _356
REMARK  154  A    between atoms: _356  and  _357
REMARK  155  A    between atoms: _356  and  _359
REMARK  156  A    between atoms: _359  and  _360
REMARK  157  A    between atoms: _363  and  _365
REMARK  158  A    between atoms: _365  and  _366
REMARK  159  A    between atoms: _365  and  _368
REMARK  160  A    between atoms: _368  and  _369
REMARK                            x       y       z     vdW  Elec       q    Type
REMARK                         _______ _______ _______ _____ _____    ______ ____
ROOT
ATOM      1  CA  HIS A   2     -26.231  15.621 -27.271  0.00  0.00    +0.155 C 
ENDROOT
BRANCH   1   4
ATOM      2  C   SER A   1     -26.547  13.186 -26.992  0.00  0.00    +0.241 C 
ATOM      3  O   SER A   1     -26.002  13.138 -25.885  0.00  0.00    -0.274 OA
ATOM      4  N   HIS A   2     -26.696  14.301 -27.693  0.00  0.00    -0.297 N 
ATOM      5  H   HIS A   2     -27.179  14.232 -28.611  0.00  0.00    +0.150 HD
BRANCH   2   6
ATOM      6  CA  SER A   1     -27.242  11.970 -27.590  0.00  0.00    +0.174 C 
BRANCH   6   7
ATOM      7  N   SER A   1     -26.817  10.732 -26.951  0.00  0.00    -0.236 NA
ATOM      8  H   SER A   1     -27.173  10.500 -26.002  0.00  0.00    +0.142 HD
ENDBRANCH   6   7
BRANCH   6   9
ATOM      9  CB  SER A   1     -28.761  12.143 -27.490  0.00  0.00    +0.163 C 
BRANCH   9  10
ATOM     10  OG  SER A   1     -29.187  12.225 -26.092  0.00  0.00    -0.380 OA
ATOM     11  H   SER A   1     -30.170  12.336 -26.054  0.00  0.00    +0.211 HD
ENDBRANCH   9  10
ENDBRANCH   6   9
ENDBRANCH   2   6
ENDBRANCH   1   4
BRANCH   1  12
ATOM     12  C   HIS A   2     -27.369  16.609 -27.518  0.00  0.00    +0.241 C 
ATOM     13  N   LEU A   3     -27.889  17.142 -26.439  0.00  0.00    -0.298 N 
ATOM     14  H   LEU A   3     -27.510  16.855 -25.514  0.00  0.00    +0.150 HD
ATOM     15  O   HIS A   2     -27.714  16.895 -28.666  0.00  0.00    -0.273 OA
BRANCH  13  16
ATOM     16  CA  LEU A   3     -28.972  18.118 -26.472  0.00  0.00    +0.137 C 
BRANCH  16  17
ATOM     17  C   LEU A   3     -30.190  17.564 -27.192  0.00  0.00    +0.227 C 
ATOM     18  O   LEU A   3     -30.326  16.329 -27.373  0.00  0.00    -0.286 OA
ENDBRANCH  16  17
BRANCH  16  19
ATOM     19  CB  LEU A   3     -28.512  19.478 -27.052  0.00  0.00    +0.028 C 
BRANCH  19  20
ATOM     20  CG  LEU A   3     -27.233  20.100 -26.451  0.00  0.00    +0.002 C 
ATOM     21  CD2 LEU A   3     -27.273  20.311 -24.962  0.00  0.00    +0.000 C 
ATOM     22  CD1 LEU A   3     -26.945  21.378 -27.206  0.00  0.00    +0.000 C 
ENDBRANCH  19  20
ENDBRANCH  16  19
ENDBRANCH  13  16
ENDBRANCH   1  12
BRANCH   1  23
ATOM     23  CB  HIS A   2     -25.062  16.094 -28.103  0.00  0.00    +0.076 C 
BRANCH  23  24
ATOM     24  CG  HIS A   2     -24.594  17.481 -27.734  0.00  0.00    +0.082 A 
ATOM     25  CD2 HIS A   2     -23.945  17.960 -26.657  0.00  0.00    +0.115 A 
ATOM     26  NE2 HIS A   2     -23.772  19.311 -26.857  0.00  0.00    -0.221 NA
ATOM     27  CE1 HIS A   2     -24.234  19.630 -28.043  0.00  0.00    +0.199 A 
ATOM     28  ND1 HIS A   2     -24.768  18.551 -28.569  0.00  0.00    -0.227 NA
ENDBRANCH  23  24
ENDBRANCH   1  23
TORSDOF 12
REMARK  Name = ../refined-set-2016/4m6u/4m6u_pocket.pdb
REMARK  160 active torsions:
REMARK  status: ('A' for Active; 'I' for Inactive)
REMARK    1  A    between atoms: _1  and  _3
REMARK    2  A    between atoms: _3  and  _4
REMARK    3  A    between atoms: _3  and  _6
REMARK    4  A    between atoms: _9  and  _11
REMARK    5  A    between atoms: _11  and  _12
REMARK    6  A    between atoms: _11  and  _14
REMARK    7  A    between atoms: _14  and  _15
REMARK    8  A    between atoms: _20  and  _22
REMARK    9  A    between atoms: _22  and  _23
REMARK   10  A    between atoms: _22  and  _25
REMARK   11  A    between atoms: _25  and  _26
REMARK   12  A    between atoms: _29  and  _31
REMARK   13  A    between atoms: _31  and  _32
REMARK   14  A    between atoms: _35  and  _37
REMARK   15  A    between atoms: _37  and  _38
REMARK   16  A    between atoms: _37  and  _40
REMARK   17  A    between atoms: _43  and  _45
REMARK   18  A    between atoms: _45  and  _46
REMARK   19  A    between atoms: _45  and  _48
REMARK   20  A    between atoms: _51  and  _53
REMARK   21  A    between atoms: _53  and  _54
REMARK   22  A    between atoms: _53  and  _56
REMARK   23  A    between atoms: _56  and  _57
REMARK   24  A    between atoms: _63  and  _65
REMARK   25  A    between atoms: _65  and  _66
REMARK   26  A    between atoms: _65  and  _68
REMARK   27  A    between atoms: _68  and  _69
REMARK   28  A    between atoms: _74  and  _75
REMARK   29  A    between atoms: _77  and  _79
REMARK   30  A    between atoms: _79  and  _80
REMARK   31  A    between atoms: _79  and  _82
REMARK   32  A    between atoms: _82  and  _83
REMARK   33  A    between atoms: _88  and  _89
REMARK   34  A    between atoms: _91  and  _93
REMARK   35  A    between atoms: _93  and  _94
REMARK   36  A    between atoms: _93  and  _96
REMARK   37  A    between atoms: _96  and  _97
REMARK   38  A    between atoms: _99  and  _101
REMARK   39  A    between atoms: _101  and  _102
REMARK   40  A    between atoms: _101  and  _104
REMARK   41  A    between atoms: _104  and  _105
REMARK   42  A    between atoms: _110  and  _112
REMARK   43  A    between atoms: _112  and  _113
REMARK   44  A    between atoms: _112  and  _115
REMARK   45  A    between atoms: _115  and  _116
REMARK   46  A    between atoms: _118  and  _120
REMARK   47  A    between atoms: _120  and  _121
REMARK   48  A    between atoms: _120  and  _123
REMARK   49  A    between atoms: _123  and  _124
REMARK   50  A    between atoms: _124  and  _125
REMARK   51  A    between atoms: _125  and  _126
REMARK   52  A    between atoms: _126  and  _127
REMARK   53  A    between atoms: _131  and  _133
REMARK   54  A    between atoms: _133  and  _134
REMARK   55  A    between atoms: _133  and  _136
REMARK   56  A    between atoms: _136  and  _137
REMARK   57  A    between atoms: _137  and  _138
REMARK   58  A    between atoms: _138  and  _139
REMARK   59  A    between atoms: _139  and  _140
REMARK   60  A    between atoms: _144  and  _146
REMARK   61  A    between atoms: _146  and  _147
REMARK   62  A    between atoms: _146  and  _149
REMARK   63  A    between atoms: _149  and  _150
REMARK   64  A    between atoms: _153  and  _155
REMARK   65  A    between atoms: _155  and  _156
REMARK   66  A    between atoms: _155  and  _158
REMARK   67  A    between atoms: _158  and  _159
REMARK   68  A    between atoms: _164  and  _165
REMARK   69  A    between atoms: _167  and  _169
REMARK   70  A    between atoms: _169  and  _170
REMARK   71  A    between atoms: _169  and  _172
REMARK   72  A    between atoms: _172  and  _173
REMARK   73  A    between atoms: _178  and  _180
REMARK   74  A    between atoms: _180  and  _181
REMARK   75  A    between atoms: _180  and  _183
REMARK   76  A    between atoms: _183  and  _184
REMARK   77  A    between atoms: _184  and  _185
REMARK   78  A    between atoms: _190  and  _192
REMARK   79  A    between atoms: _192  and  _193
REMARK   80  A    between atoms: _192  and  _195
REMARK   81  A    between atoms: _195  and  _196
REMARK   82  A    between atoms: _206  and  _208
REMARK   83  A    between atoms: _208  and  _209
REMARK   84  A    between atoms: _208  and  _211
REMARK   85  A    between atoms: _211  and  _212
REMARK   86  A    between atoms: _212  and  _213
REMARK   87  A    between atoms: _213  and  _215
REMARK   88  A    between atoms: _215  and  MG_372
REMARK   89  A    between atoms: _216  and  _218
REMARK   90  A    between atoms: _218  and  _219
REMARK   91  A    between atoms: _218  and  _221
REMARK   92  A    between atoms: _221  and  _222
REMARK   93  A    between atoms: _222  and  _223
REMARK   94  A    between atoms: _226  and  _228
REMARK   95  A    between atoms: _228  and  _229
REMARK   96  A    between atoms: _228  and  _231
REMARK   97  A    between atoms: _231  and  _232
REMARK   98  A    between atoms: _232  and  _233
REMARK   99  A    between atoms: _238  and  _240
REMARK  100  A    between atoms: _240  and  _241
REMARK  101  A    between atoms: _240  and  _243
REMARK  102  A    between atoms: _243  and  _244
REMARK  103  A    between atoms: _244  and  _245
REMARK  104  A    between atoms: _245  and  _246
REMARK  105  A    between atoms: _246  and  MG_372
REMARK  106  A    between atoms: _248  and  _250
REMARK  107  A    between atoms: _250  and  _251
REMARK  108  A    between atoms: _250  and  _253
REMARK  109  A    between atoms: _253  and  _254
REMARK  110  A    between atoms: _259  and  _261
REMARK  111  A    between atoms: _261  and  _262
REMARK  112  A    between atoms: _261  and  _264
REMARK  113  A    between atoms: _264  and  _265
REMARK  114  A    between atoms: _265  and  _266
REMARK  115  A    between atoms: _268  and  _270
REMARK  116  A    between atoms: _270  and  _271
REMARK  117  A    between atoms: _270  and  _273
REMARK  118  A    between atoms: _273  and  _274
REMARK  119  A    between atoms: _277  and  _279
REMARK  120  A    between atoms: _279  and  _280
REMARK  121  A    between atoms: _279  and  _282
REMARK  122  A    between atoms: _282  and  _283
REMARK  123  A    between atoms: _283  and  _284
REMARK  124  A    between atoms: _284  and  _285
REMARK  125  A    between atoms: _285  and  _286
REMARK  126  A    between atoms: _290  and  _292
REMARK  127  A    between atoms: _292  and  _293
REMARK  128  A    between atoms: _292  and  _295
REMARK  129  A    between atoms: _295  and  _296
REMARK  130  A    between atoms: _298  and  _300
REMARK  131  A    between atoms: _300  and  _301
REMARK  132  A    between atoms: _300  and  _303
REMARK  133  A    between atoms: _303  and  _304
REMARK  134  A    between atoms: _309  and  _311
REMARK  135  A    between atoms: _311  and  _312
REMARK  136  A    between atoms: _311  and  _314
REMARK  137  A    between atoms: _314  and  _315
REMARK  138  A    between atoms: _318  and  _320
REMARK  139  A    between atoms: _320  and  _321
REMARK  140  A    between atoms: _320  and  _323
REMARK  141  A    between atoms: _323  and  _324
REMARK  142  A    between atoms: _324  and  _325
REMARK  143  A    between atoms: _328  and  _330
REMARK  144  A    between atoms: _330  and  _331
REMARK  145  A    between atoms: _330  and  _333
REMARK  146  A    between atoms: _333  and  _334
REMARK  147  A    between atoms: _334  and  _335
REMARK  148  A    between atoms: _335  and  _336
REMARK  149  A    between atoms: _345  and  _347
REMARK  150  A    between atoms: _347  and  _348
REMARK  151  A    between atoms: _347  and  _350
REMARK  152  A    between atoms: _350  and  _351
REMARK  153  A    between atoms: _354  and  _356
REMARK  154  A    between atoms: _356  and  _357
REMARK  155  A    between atoms: _356  and  _359
REMARK  156  A    between atoms: _359  and  _360
REMARK  157  A    between atoms: _363  and  _365
REMARK  158  A    between atoms: _365  and  _366
REMARK  159  A    between atoms: _365  and  _368
REMARK  160  A    between atoms: _368  and  _369
REMARK                            x       y       z     vdW  Elec       q    Type
REMARK                         _______ _______ _______ _____ _____    ______ ____
ROOT
ATOM      1  CA  ARG A   2     -30.905  15.733 -20.236  0.00  0.00    +0.000 C 
ENDROOT
BRANCH   1   3
ATOM      2  C   GLU A   1     -29.605  14.659 -21.963  0.00  0.00    +0.000 C 
ATOM      3  N   ARG A   2     -29.868  14.796 -20.662  0.00  0.00    +0.000 N 
ATOM      4  H   ARG A   2     -29.340  14.241 -19.958  0.00  0.00    +0.000 HD
ATOM      5  O   GLU A   1     -30.279  15.197 -22.852  0.00  0.00    +0.000 OA
BRANCH   2   6
ATOM      6  CA  GLU A   1     -28.386  13.807 -22.317  0.00  0.00    +0.000 C 
BRANCH   6   7
ATOM      7  N   GLU A   1     -28.825  12.618 -23.037  0.00  0.00    +0.000 NA
ATOM      8  H   GLU A   1     -28.790  12.618 -24.076  0.00  0.00    +0.000 HD
ENDBRANCH   6   7
BRANCH   6   9
ATOM      9  CB  GLU A   1     -27.422  14.694 -23.093  0.00  0.00    +0.000 C 
BRANCH   9  10
ATOM     10  CG  GLU A   1     -26.962  15.887 -22.271  0.00  0.00    +0.000 C 
BRANCH  10  11
ATOM     11  CD  GLU A   1     -25.905  16.733 -22.922  0.00  0.00    +0.000 C 
ATOM     12  OE2 GLU A   1     -25.036  17.286 -22.215  0.00  0.00    +0.000 OA
ATOM     13  OE1 GLU A   1     -25.963  16.867 -24.139  0.00  0.00    +0.000 OA
ENDBRANCH  10  11
ENDBRANCH   9  10
ENDBRANCH   6   9
ENDBRANCH   2   6
ENDBRANCH   1   3
BRANCH   1  14
ATOM     14  C   ARG A   2     -30.276  17.105 -20.039  0.00  0.00    +0.000 C 
ATOM     15  O   ARG A   2     -29.502  17.340 -19.096  0.00  0.00    +0.000 OA
ATOM     16  N   LEU A   3     -30.564  18.004 -20.959  0.00  0.00    +0.000 N 
ATOM     17  H   LEU A   3     -31.078  17.713 -21.815  0.00  0.00    +0.000 HD
BRANCH  16  18
ATOM     18  CA  LEU A   3     -30.163  19.441 -20.793  0.00  0.00    +0.000 C 
BRANCH  18  19
ATOM     19  C   LEU A   3     -31.257  20.204 -21.486  0.00  0.00    +0.000 C 
ATOM     20  O   LEU A   3     -31.336  20.237 -22.726  0.00  0.00    +0.000 OA
ENDBRANCH  18  19
BRANCH  18  21
ATOM     21  CB  LEU A   3     -28.774  19.726 -21.391  0.00  0.00    +0.000 C 
BRANCH  21  22
ATOM     22  CG  LEU A   3     -27.962  20.878 -20.728  0.00  0.00    +0.000 C 
ATOM     23  CD2 LEU A   3     -28.718  22.163 -20.935  0.00  0.00    +0.000 C 
ATOM     24  CD1 LEU A   3     -26.516  21.002 -21.269  0.00  0.00    +0.000 C 
ENDBRANCH  21  22
ENDBRANCH  18  21
ENDBRANCH  16  18
ENDBRANCH   1  14
BRANCH   1  25
ATOM     25  CB  ARG A   2     -31.632  15.286 -18.947  0.00  0.00    +0.000 C 
BRANCH  25  26
ATOM     26  CG  ARG A   2     -32.723  16.300 -18.570  0.00  0.00    +0.000 C 
BRANCH  26  27
ATOM     27  CD  ARG A   2     -33.434  15.963 -17.306  0.00  0.00    +0.000 C 
BRANCH  27  28
ATOM     28  NE  ARG A   2     -34.420  17.025 -17.026  0.00  0.00    +0.330 N 
ATOM     29  CZ  ARG A   2     -34.318  17.942 -16.090  0.00  0.00    +0.000 C 
ATOM     30  NH2 ARG A   2     -33.273  17.998 -15.239  0.00  0.00    +0.330 N 
ATOM     31 HH21 ARG A   2     -33.233  18.741 -14.513  0.00  0.00    +0.000 HD
ATOM     32 HH22 ARG A   2     -32.507  17.298 -15.309  0.00  0.00    +0.000 HD
ATOM     33  NH1 ARG A   2     -35.316  18.813 -16.006  0.00  0.00    +0.330 N 
ATOM     34 HH11 ARG A   2     -35.293  19.562 -15.285  0.00  0.00    +0.000 HD
ATOM     35 HH12 ARG A   2     -36.121  18.746 -16.661  0.00  0.00    +0.000 HD
ATOM     36  HE  ARG A   2     -35.271  17.050 -17.623  0.00  0.00    +0.000 HD
ENDBRANCH  27  28
ENDBRANCH  26  27
ENDBRANCH  25  26
ENDBRANCH   1  25
TORSDOF 15
REMARK  Name = ../refined-set-2016/4m6u/4m6u_pocket.pdb
REMARK  160 active torsions:
REMARK  status: ('A' for Active; 'I' for Inactive)
REMARK    1  A    between atoms: _1  and  _3
REMARK    2  A    between atoms: _3  and  _4
REMARK    3  A    between atoms: _3  and  _6
REMARK    4  A    between atoms: _9  and  _11
REMARK    5  A    between atoms: _11  and  _12
REMARK    6  A    between atoms: _11  and  _14
REMARK    7  A    between atoms: _14  and  _15
REMARK    8  A    between atoms: _20  and  _22
REMARK    9  A    between atoms: _22  and  _23
REMARK   10  A    between atoms: _22  and  _25
REMARK   11  A    between atoms: _25  and  _26
REMARK   12  A    between atoms: _29  and  _31
REMARK   13  A    between atoms: _31  and  _32
REMARK   14  A    between atoms: _35  and  _37
REMARK   15  A    between atoms: _37  and  _38
REMARK   16  A    between atoms: _37  and  _40
REMARK   17  A    between atoms: _43  and  _45
REMARK   18  A    between atoms: _45  and  _46
REMARK   19  A    between atoms: _45  and  _48
REMARK   20  A    between atoms: _51  and  _53
REMARK   21  A    between atoms: _53  and  _54
REMARK   22  A    between atoms: _53  and  _56
REMARK   23  A    between atoms: _56  and  _57
REMARK   24  A    between atoms: _63  and  _65
REMARK   25  A    between atoms: _65  and  _66
REMARK   26  A    between atoms: _65  and  _68
REMARK   27  A    between atoms: _68  and  _69
REMARK   28  A    between atoms: _74  and  _75
REMARK   29  A    between atoms: _77  and  _79
REMARK   30  A    between atoms: _79  and  _80
REMARK   31  A    between atoms: _79  and  _82
REMARK   32  A    between atoms: _82  and  _83
REMARK   33  A    between atoms: _88  and  _89
REMARK   34  A    between atoms: _91  and  _93
REMARK   35  A    between atoms: _93  and  _94
REMARK   36  A    between atoms: _93  and  _96
REMARK   37  A    between atoms: _96  and  _97
REMARK   38  A    between atoms: _99  and  _101
REMARK   39  A    between atoms: _101  and  _102
REMARK   40  A    between atoms: _101  and  _104
REMARK   41  A    between atoms: _104  and  _105
REMARK   42  A    between atoms: _110  and  _112
REMARK   43  A    between atoms: _112  and  _113
REMARK   44  A    between atoms: _112  and  _115
REMARK   45  A    between atoms: _115  and  _116
REMARK   46  A    between atoms: _118  and  _120
REMARK   47  A    between atoms: _120  and  _121
REMARK   48  A    between atoms: _120  and  _123
REMARK   49  A    between atoms: _123  and  _124
REMARK   50  A    between atoms: _124  and  _125
REMARK   51  A    between atoms: _125  and  _126
REMARK   52  A    between atoms: _126  and  _127
REMARK   53  A    between atoms: _131  and  _133
REMARK   54  A    between atoms: _133  and  _134
REMARK   55  A    between atoms: _133  and  _136
REMARK   56  A    between atoms: _136  and  _137
REMARK   57  A    between atoms: _137  and  _138
REMARK   58  A    between atoms: _138  and  _139
REMARK   59  A    between atoms: _139  and  _140
REMARK   60  A    between atoms: _144  and  _146
REMARK   61  A    between atoms: _146  and  _147
REMARK   62  A    between atoms: _146  and  _149
REMARK   63  A    between atoms: _149  and  _150
REMARK   64  A    between atoms: _153  and  _155
REMARK   65  A    between atoms: _155  and  _156
REMARK   66  A    between atoms: _155  and  _158
REMARK   67  A    between atoms: _158  and  _159
REMARK   68  A    between atoms: _164  and  _165
REMARK   69  A    between atoms: _167  and  _169
REMARK   70  A    between atoms: _169  and  _170
REMARK   71  A    between atoms: _169  and  _172
REMARK   72  A    between atoms: _172  and  _173
REMARK   73  A    between atoms: _178  and  _180
REMARK   74  A    between atoms: _180  and  _181
REMARK   75  A    between atoms: _180  and  _183
REMARK   76  A    between atoms: _183  and  _184
REMARK   77  A    between atoms: _184  and  _185
REMARK   78  A    between atoms: _190  and  _192
REMARK   79  A    between atoms: _192  and  _193
REMARK   80  A    between atoms: _192  and  _195
REMARK   81  A    between atoms: _195  and  _196
REMARK   82  A    between atoms: _206  and  _208
REMARK   83  A    between atoms: _208  and  _209
REMARK   84  A    between atoms: _208  and  _211
REMARK   85  A    between atoms: _211  and  _212
REMARK   86  A    between atoms: _212  and  _213
REMARK   87  A    between atoms: _213  and  _215
REMARK   88  A    between atoms: _215  and  MG_372
REMARK   89  A    between atoms: _216  and  _218
REMARK   90  A    between atoms: _218  and  _219
REMARK   91  A    between atoms: _218  and  _221
REMARK   92  A    between atoms: _221  and  _222
REMARK   93  A    between atoms: _222  and  _223
REMARK   94  A    between atoms: _226  and  _228
REMARK   95  A    between atoms: _228  and  _229
REMARK   96  A    between atoms: _228  and  _231
REMARK   97  A    between atoms: _231  and  _232
REMARK   98  A    between atoms: _232  and  _233
REMARK   99  A    between atoms: _238  and  _240
REMARK  100  A    between atoms: _240  and  _241
REMARK  101  A    between atoms: _240  and  _243
REMARK  102  A    between atoms: _243  and  _244
REMARK  103  A    between atoms: _244  and  _245
REMARK  104  A    between atoms: _245  and  _246
REMARK  105  A    between atoms: _246  and  MG_372
REMARK  106  A    between atoms: _248  and  _250
REMARK  107  A    between atoms: _250  and  _251
REMARK  108  A    between atoms: _250  and  _253
REMARK  109  A    between atoms: _253  and  _254
REMARK  110  A    between atoms: _259  and  _261
REMARK  111  A    between atoms: _261  and  _262
REMARK  112  A    between atoms: _261  and  _264
REMARK  113  A    between atoms: _264  and  _265
REMARK  114  A    between atoms: _265  and  _266
REMARK  115  A    between atoms: _268  and  _270
REMARK  116  A    between atoms: _270  and  _271
REMARK  117  A    between atoms: _270  and  _273
REMARK  118  A    between atoms: _273  and  _274
REMARK  119  A    between atoms: _277  and  _279
REMARK  120  A    between atoms: _279  and  _280
REMARK  121  A    between atoms: _279  and  _282
REMARK  122  A    between atoms: _282  and  _283
REMARK  123  A    between atoms: _283  and  _284
REMARK  124  A    between atoms: _284  and  _285
REMARK  125  A    between atoms: _285  and  _286
REMARK  126  A    between atoms: _290  and  _292
REMARK  127  A    between atoms: _292  and  _293
REMARK  128  A    between atoms: _292  and  _295
REMARK  129  A    between atoms: _295  and  _296
REMARK  130  A    between atoms: _298  and  _300
REMARK  131  A    between atoms: _300  and  _301
REMARK  132  A    between atoms: _300  and  _303
REMARK  133  A    between atoms: _303  and  _304
REMARK  134  A    between atoms: _309  and  _311
REMARK  135  A    between atoms: _311  and  _312
REMARK  136  A    between atoms: _311  and  _314
REMARK  137  A    between atoms: _314  and  _315
REMARK  138  A    between atoms: _318  and  _320
REMARK  139  A    between atoms: _320  and  _321
REMARK  140  A    between atoms: _320  and  _323
REMARK  141  A    between atoms: _323  and  _324
REMARK  142  A    between atoms: _324  and  _325
REMARK  143  A    between atoms: _328  and  _330
REMARK  144  A    between atoms: _330  and  _331
REMARK  145  A    between atoms: _330  and  _333
REMARK  146  A    between atoms: _333  and  _334
REMARK  147  A    between atoms: _334  and  _335
REMARK  148  A    between atoms: _335  and  _336
REMARK  149  A    between atoms: _345  and  _347
REMARK  150  A    between atoms: _347  and  _348
REMARK  151  A    between atoms: _347  and  _350
REMARK  152  A    between atoms: _350  and  _351
REMARK  153  A    between atoms: _354  and  _356
REMARK  154  A    between atoms: _356  and  _357
REMARK  155  A    between atoms: _356  and  _359
REMARK  156  A    between atoms: _359  and  _360
REMARK  157  A    between atoms: _363  and  _365
REMARK  158  A    between atoms: _365  and  _366
REMARK  159  A    between atoms: _365  and  _368
REMARK  160  A    between atoms: _368  and  _369
REMARK                            x       y       z     vdW  Elec       q    Type
REMARK                         _______ _______ _______ _____ _____    ______ ____
ROOT
ATOM      1  CA  LEU A   1     -32.661  24.177 -23.492  0.00  0.00    +0.000 C 
ENDROOT
BRANCH   1   2
ATOM      2  N   LEU A   1     -32.869  22.823 -23.001  0.00  0.00    +0.000 NA
ATOM      3  H   LEU A   1     -32.607  22.009 -23.593  0.00  0.00    +0.000 HD
ENDBRANCH   1   2
BRANCH   1   4
ATOM      4  C   LEU A   1     -33.953  24.835 -23.891  0.00  0.00    +0.000 C 
ATOM      5  O   LEU A   1     -34.041  26.069 -23.823  0.00  0.00    +0.000 OA
ENDBRANCH   1   4
BRANCH   1   6
ATOM      6  CB  LEU A   1     -31.740  24.198 -24.722  0.00  0.00    +0.000 C 
BRANCH   6   7
ATOM      7  CG  LEU A   1     -30.275  23.934 -24.541  0.00  0.00    +0.000 C 
ATOM      8  CD2 LEU A   1     -29.603  24.824 -23.527  0.00  0.00    +0.000 C 
ATOM      9  CD1 LEU A   1     -29.643  24.063 -25.922  0.00  0.00    +0.000 C 
ENDBRANCH   6   7
ENDBRANCH   1   6
TORSDOF 4
REMARK  Name = ../refined-set-2016/4m6u/4m6u_pocket.pdb
REMARK  160 active torsions:
REMARK  status: ('A' for Active; 'I' for Inactive)
REMARK    1  A    between atoms: _1  and  _3
REMARK    2  A    between atoms: _3  and  _4
REMARK    3  A    between atoms: _3  and  _6
REMARK    4  A    between atoms: _9  and  _11
REMARK    5  A    between atoms: _11  and  _12
REMARK    6  A    between atoms: _11  and  _14
REMARK    7  A    between atoms: _14  and  _15
REMARK    8  A    between atoms: _20  and  _22
REMARK    9  A    between atoms: _22  and  _23
REMARK   10  A    between atoms: _22  and  _25
REMARK   11  A    between atoms: _25  and  _26
REMARK   12  A    between atoms: _29  and  _31
REMARK   13  A    between atoms: _31  and  _32
REMARK   14  A    between atoms: _35  and  _37
REMARK   15  A    between atoms: _37  and  _38
REMARK   16  A    between atoms: _37  and  _40
REMARK   17  A    between atoms: _43  and  _45
REMARK   18  A    between atoms: _45  and  _46
REMARK   19  A    between atoms: _45  and  _48
REMARK   20  A    between atoms: _51  and  _53
REMARK   21  A    between atoms: _53  and  _54
REMARK   22  A    between atoms: _53  and  _56
REMARK   23  A    between atoms: _56  and  _57
REMARK   24  A    between atoms: _63  and  _65
REMARK   25  A    between atoms: _65  and  _66
REMARK   26  A    between atoms: _65  and  _68
REMARK   27  A    between atoms: _68  and  _69
REMARK   28  A    between atoms: _74  and  _75
REMARK   29  A    between atoms: _77  and  _79
REMARK   30  A    between atoms: _79  and  _80
REMARK   31  A    between atoms: _79  and  _82
REMARK   32  A    between atoms: _82  and  _83
REMARK   33  A    between atoms: _88  and  _89
REMARK   34  A    between atoms: _91  and  _93
REMARK   35  A    between atoms: _93  and  _94
REMARK   36  A    between atoms: _93  and  _96
REMARK   37  A    between atoms: _96  and  _97
REMARK   38  A    between atoms: _99  and  _101
REMARK   39  A    between atoms: _101  and  _102
REMARK   40  A    between atoms: _101  and  _104
REMARK   41  A    between atoms: _104  and  _105
REMARK   42  A    between atoms: _110  and  _112
REMARK   43  A    between atoms: _112  and  _113
REMARK   44  A    between atoms: _112  and  _115
REMARK   45  A    between atoms: _115  and  _116
REMARK   46  A    between atoms: _118  and  _120
REMARK   47  A    between atoms: _120  and  _121
REMARK   48  A    between atoms: _120  and  _123
REMARK   49  A    between atoms: _123  and  _124
REMARK   50  A    between atoms: _124  and  _125
REMARK   51  A    between atoms: _125  and  _126
REMARK   52  A    between atoms: _126  and  _127
REMARK   53  A    between atoms: _131  and  _133
REMARK   54  A    between atoms: _133  and  _134
REMARK   55  A    between atoms: _133  and  _136
REMARK   56  A    between atoms: _136  and  _137
REMARK   57  A    between atoms: _137  and  _138
REMARK   58  A    between atoms: _138  and  _139
REMARK   59  A    between atoms: _139  and  _140
REMARK   60  A    between atoms: _144  and  _146
REMARK   61  A    between atoms: _146  and  _147
REMARK   62  A    between atoms: _146  and  _149
REMARK   63  A    between atoms: _149  and  _150
REMARK   64  A    between atoms: _153  and  _155
REMARK   65  A    between atoms: _155  and  _156
REMARK   66  A    between atoms: _155  and  _158
REMARK   67  A    between atoms: _158  and  _159
REMARK   68  A    between atoms: _164  and  _165
REMARK   69  A    between atoms: _167  and  _169
REMARK   70  A    between atoms: _169  and  _170
REMARK   71  A    between atoms: _169  and  _172
REMARK   72  A    between atoms: _172  and  _173
REMARK   73  A    between atoms: _178  and  _180
REMARK   74  A    between atoms: _180  and  _181
REMARK   75  A    between atoms: _180  and  _183
REMARK   76  A    between atoms: _183  and  _184
REMARK   77  A    between atoms: _184  and  _185
REMARK   78  A    between atoms: _190  and  _192
REMARK   79  A    between atoms: _192  and  _193
REMARK   80  A    between atoms: _192  and  _195
REMARK   81  A    between atoms: _195  and  _196
REMARK   82  A    between atoms: _206  and  _208
REMARK   83  A    between atoms: _208  and  _209
REMARK   84  A    between atoms: _208  and  _211
REMARK   85  A    between atoms: _211  and  _212
REMARK   86  A    between atoms: _212  and  _213
REMARK   87  A    between atoms: _213  and  _215
REMARK   88  A    between atoms: _215  and  MG_372
REMARK   89  A    between atoms: _216  and  _218
REMARK   90  A    between atoms: _218  and  _219
REMARK   91  A    between atoms: _218  and  _221
REMARK   92  A    between atoms: _221  and  _222
REMARK   93  A    between atoms: _222  and  _223
REMARK   94  A    between atoms: _226  and  _228
REMARK   95  A    between atoms: _228  and  _229
REMARK   96  A    between atoms: _228  and  _231
REMARK   97  A    between atoms: _231  and  _232
REMARK   98  A    between atoms: _232  and  _233
REMARK   99  A    between atoms: _238  and  _240
REMARK  100  A    between atoms: _240  and  _241
REMARK  101  A    between atoms: _240  and  _243
REMARK  102  A    between atoms: _243  and  _244
REMARK  103  A    between atoms: _244  and  _245
REMARK  104  A    between atoms: _245  and  _246
REMARK  105  A    between atoms: _246  and  MG_372
REMARK  106  A    between atoms: _248  and  _250
REMARK  107  A    between atoms: _250  and  _251
REMARK  108  A    between atoms: _250  and  _253
REMARK  109  A    between atoms: _253  and  _254
REMARK  110  A    between atoms: _259  and  _261
REMARK  111  A    between atoms: _261  and  _262
REMARK  112  A    between atoms: _261  and  _264
REMARK  113  A    between atoms: _264  and  _265
REMARK  114  A    between atoms: _265  and  _266
REMARK  115  A    between atoms: _268  and  _270
REMARK  116  A    between atoms: _270  and  _271
REMARK  117  A    between atoms: _270  and  _273
REMARK  118  A    between atoms: _273  and  _274
REMARK  119  A    between atoms: _277  and  _279
REMARK  120  A    between atoms: _279  and  _280
REMARK  121  A    between atoms: _279  and  _282
REMARK  122  A    between atoms: _282  and  _283
REMARK  123  A    between atoms: _283  and  _284
REMARK  124  A    between atoms: _284  and  _285
REMARK  125  A    between atoms: _285  and  _286
REMARK  126  A    between atoms: _290  and  _292
REMARK  127  A    between atoms: _292  and  _293
REMARK  128  A    between atoms: _292  and  _295
REMARK  129  A    between atoms: _295  and  _296
REMARK  130  A    between atoms: _298  and  _300
REMARK  131  A    between atoms: _300  and  _301
REMARK  132  A    between atoms: _300  and  _303
REMARK  133  A    between atoms: _303  and  _304
REMARK  134  A    between atoms: _309  and  _311
REMARK  135  A    between atoms: _311  and  _312
REMARK  136  A    between atoms: _311  and  _314
REMARK  137  A    between atoms: _314  and  _315
REMARK  138  A    between atoms: _318  and  _320
REMARK  139  A    between atoms: _320  and  _321
REMARK  140  A    between atoms: _320  and  _323
REMARK  141  A    between atoms: _323  and  _324
REMARK  142  A    between atoms: _324  and  _325
REMARK  143  A    between atoms: _328  and  _330
REMARK  144  A    between atoms: _330  and  _331
REMARK  145  A    between atoms: _330  and  _333
REMARK  146  A    between atoms: _333  and  _334
REMARK  147  A    between atoms: _334  and  _335
REMARK  148  A    between atoms: _335  and  _336
REMARK  149  A    between atoms: _345  and  _347
REMARK  150  A    between atoms: _347  and  _348
REMARK  151  A    between atoms: _347  and  _350
REMARK  152  A    between atoms: _350  and  _351
REMARK  153  A    between atoms: _354  and  _356
REMARK  154  A    between atoms: _356  and  _357
REMARK  155  A    between atoms: _356  and  _359
REMARK  156  A    between atoms: _359  and  _360
REMARK  157  A    between atoms: _363  and  _365
REMARK  158  A    between atoms: _365  and  _366
REMARK  159  A    between atoms: _365  and  _368
REMARK  160  A    between atoms: _368  and  _369
REMARK                            x       y       z     vdW  Elec       q    Type
REMARK                         _______ _______ _______ _____ _____    ______ ____
ROOT
ATOM      1  CA  LEU A   1     -18.841  25.621 -29.714  0.00  0.00    +0.000 C 
ENDROOT
BRANCH   1   2
ATOM      2  N   LEU A   1     -17.562  26.366 -29.906  0.00  0.00    +0.000 NA
ATOM      3  H   LEU A   1     -17.497  27.358 -29.599  0.00  0.00    +0.000 HD
ENDBRANCH   1   2
BRANCH   1   4
ATOM      4  C   LEU A   1     -19.756  25.604 -30.928  0.00  0.00    +0.000 C 
ATOM      5  O   LEU A   1     -20.305  24.559 -31.305  0.00  0.00    +0.000 OA
ENDBRANCH   1   4
BRANCH   1   6
ATOM      6  CB  LEU A   1     -19.556  26.133 -28.440  0.00  0.00    +0.000 C 
BRANCH   6   7
ATOM      7  CG  LEU A   1     -18.696  26.174 -27.167  0.00  0.00    +0.000 C 
ATOM      8  CD2 LEU A   1     -19.494  26.571 -25.943  0.00  0.00    +0.000 C 
ATOM      9  CD1 LEU A   1     -18.068  24.817 -26.905  0.00  0.00    +0.000 C 
ENDBRANCH   6   7
ENDBRANCH   1   6
TORSDOF 4
REMARK  Name = ../refined-set-2016/4m6u/4m6u_pocket.pdb
REMARK  160 active torsions:
REMARK  status: ('A' for Active; 'I' for Inactive)
REMARK    1  A    between atoms: _1  and  _3
REMARK    2  A    between atoms: _3  and  _4
REMARK    3  A    between atoms: _3  and  _6
REMARK    4  A    between atoms: _9  and  _11
REMARK    5  A    between atoms: _11  and  _12
REMARK    6  A    between atoms: _11  and  _14
REMARK    7  A    between atoms: _14  and  _15
REMARK    8  A    between atoms: _20  and  _22
REMARK    9  A    between atoms: _22  and  _23
REMARK   10  A    between atoms: _22  and  _25
REMARK   11  A    between atoms: _25  and  _26
REMARK   12  A    between atoms: _29  and  _31
REMARK   13  A    between atoms: _31  and  _32
REMARK   14  A    between atoms: _35  and  _37
REMARK   15  A    between atoms: _37  and  _38
REMARK   16  A    between atoms: _37  and  _40
REMARK   17  A    between atoms: _43  and  _45
REMARK   18  A    between atoms: _45  and  _46
REMARK   19  A    between atoms: _45  and  _48
REMARK   20  A    between atoms: _51  and  _53
REMARK   21  A    between atoms: _53  and  _54
REMARK   22  A    between atoms: _53  and  _56
REMARK   23  A    between atoms: _56  and  _57
REMARK   24  A    between atoms: _63  and  _65
REMARK   25  A    between atoms: _65  and  _66
REMARK   26  A    between atoms: _65  and  _68
REMARK   27  A    between atoms: _68  and  _69
REMARK   28  A    between atoms: _74  and  _75
REMARK   29  A    between atoms: _77  and  _79
REMARK   30  A    between atoms: _79  and  _80
REMARK   31  A    between atoms: _79  and  _82
REMARK   32  A    between atoms: _82  and  _83
REMARK   33  A    between atoms: _88  and  _89
REMARK   34  A    between atoms: _91  and  _93
REMARK   35  A    between atoms: _93  and  _94
REMARK   36  A    between atoms: _93  and  _96
REMARK   37  A    between atoms: _96  and  _97
REMARK   38  A    between atoms: _99  and  _101
REMARK   39  A    between atoms: _101  and  _102
REMARK   40  A    between atoms: _101  and  _104
REMARK   41  A    between atoms: _104  and  _105
REMARK   42  A    between atoms: _110  and  _112
REMARK   43  A    between atoms: _112  and  _113
REMARK   44  A    between atoms: _112  and  _115
REMARK   45  A    between atoms: _115  and  _116
REMARK   46  A    between atoms: _118  and  _120
REMARK   47  A    between atoms: _120  and  _121
REMARK   48  A    between atoms: _120  and  _123
REMARK   49  A    between atoms: _123  and  _124
REMARK   50  A    between atoms: _124  and  _125
REMARK   51  A    between atoms: _125  and  _126
REMARK   52  A    between atoms: _126  and  _127
REMARK   53  A    between atoms: _131  and  _133
REMARK   54  A    between atoms: _133  and  _134
REMARK   55  A    between atoms: _133  and  _136
REMARK   56  A    between atoms: _136  and  _137
REMARK   57  A    between atoms: _137  and  _138
REMARK   58  A    between atoms: _138  and  _139
REMARK   59  A    between atoms: _139  and  _140
REMARK   60  A    between atoms: _144  and  _146
REMARK   61  A    between atoms: _146  and  _147
REMARK   62  A    between atoms: _146  and  _149
REMARK   63  A    between atoms: _149  and  _150
REMARK   64  A    between atoms: _153  and  _155
REMARK   65  A    between atoms: _155  and  _156
REMARK   66  A    between atoms: _155  and  _158
REMARK   67  A    between atoms: _158  and  _159
REMARK   68  A    between atoms: _164  and  _165
REMARK   69  A    between atoms: _167  and  _169
REMARK   70  A    between atoms: _169  and  _170
REMARK   71  A    between atoms: _169  and  _172
REMARK   72  A    between atoms: _172  and  _173
REMARK   73  A    between atoms: _178  and  _180
REMARK   74  A    between atoms: _180  and  _181
REMARK   75  A    between atoms: _180  and  _183
REMARK   76  A    between atoms: _183  and  _184
REMARK   77  A    between atoms: _184  and  _185
REMARK   78  A    between atoms: _190  and  _192
REMARK   79  A    between atoms: _192  and  _193
REMARK   80  A    between atoms: _192  and  _195
REMARK   81  A    between atoms: _195  and  _196
REMARK   82  A    between atoms: _206  and  _208
REMARK   83  A    between atoms: _208  and  _209
REMARK   84  A    between atoms: _208  and  _211
REMARK   85  A    between atoms: _211  and  _212
REMARK   86  A    between atoms: _212  and  _213
REMARK   87  A    between atoms: _213  and  _215
REMARK   88  A    between atoms: _215  and  MG_372
REMARK   89  A    between atoms: _216  and  _218
REMARK   90  A    between atoms: _218  and  _219
REMARK   91  A    between atoms: _218  and  _221
REMARK   92  A    between atoms: _221  and  _222
REMARK   93  A    between atoms: _222  and  _223
REMARK   94  A    between atoms: _226  and  _228
REMARK   95  A    between atoms: _228  and  _229
REMARK   96  A    between atoms: _228  and  _231
REMARK   97  A    between atoms: _231  and  _232
REMARK   98  A    between atoms: _232  and  _233
REMARK   99  A    between atoms: _238  and  _240
REMARK  100  A    between atoms: _240  and  _241
REMARK  101  A    between atoms: _240  and  _243
REMARK  102  A    between atoms: _243  and  _244
REMARK  103  A    between atoms: _244  and  _245
REMARK  104  A    between atoms: _245  and  _246
REMARK  105  A    between atoms: _246  and  MG_372
REMARK  106  A    between atoms: _248  and  _250
REMARK  107  A    between atoms: _250  and  _251
REMARK  108  A    between atoms: _250  and  _253
REMARK  109  A    between atoms: _253  and  _254
REMARK  110  A    between atoms: _259  and  _261
REMARK  111  A    between atoms: _261  and  _262
REMARK  112  A    between atoms: _261  and  _264
REMARK  113  A    between atoms: _264  and  _265
REMARK  114  A    between atoms: _265  and  _266
REMARK  115  A    between atoms: _268  and  _270
REMARK  116  A    between atoms: _270  and  _271
REMARK  117  A    between atoms: _270  and  _273
REMARK  118  A    between atoms: _273  and  _274
REMARK  119  A    between atoms: _277  and  _279
REMARK  120  A    between atoms: _279  and  _280
REMARK  121  A    between atoms: _279  and  _282
REMARK  122  A    between atoms: _282  and  _283
REMARK  123  A    between atoms: _283  and  _284
REMARK  124  A    between atoms: _284  and  _285
REMARK  125  A    between atoms: _285  and  _286
REMARK  126  A    between atoms: _290  and  _292
REMARK  127  A    between atoms: _292  and  _293
REMARK  128  A    between atoms: _292  and  _295
REMARK  129  A    between atoms: _295  and  _296
REMARK  130  A    between atoms: _298  and  _300
REMARK  131  A    between atoms: _300  and  _301
REMARK  132  A    between atoms: _300  and  _303
REMARK  133  A    between atoms: _303  and  _304
REMARK  134  A    between atoms: _309  and  _311
REMARK  135  A    between atoms: _311  and  _312
REMARK  136  A    between atoms: _311  and  _314
REMARK  137  A    between atoms: _314  and  _315
REMARK  138  A    between atoms: _318  and  _320
REMARK  139  A    between atoms: _320  and  _321
REMARK  140  A    between atoms: _320  and  _323
REMARK  141  A    between atoms: _323  and  _324
REMARK  142  A    between atoms: _324  and  _325
REMARK  143  A    between atoms: _328  and  _330
REMARK  144  A    between atoms: _330  and  _331
REMARK  145  A    between atoms: _330  and  _333
REMARK  146  A    between atoms: _333  and  _334
REMARK  147  A    between atoms: _334  and  _335
REMARK  148  A    between atoms: _335  and  _336
REMARK  149  A    between atoms: _345  and  _347
REMARK  150  A    between atoms: _347  and  _348
REMARK  151  A    between atoms: _347  and  _350
REMARK  152  A    between atoms: _350  and  _351
REMARK  153  A    between atoms: _354  and  _356
REMARK  154  A    between atoms: _356  and  _357
REMARK  155  A    between atoms: _356  and  _359
REMARK  156  A    between atoms: _359  and  _360
REMARK  157  A    between atoms: _363  and  _365
REMARK  158  A    between atoms: _365  and  _366
REMARK  159  A    between atoms: _365  and  _368
REMARK  160  A    between atoms: _368  and  _369
REMARK                            x       y       z     vdW  Elec       q    Type
REMARK                         _______ _______ _______ _____ _____    ______ ____
ROOT
ATOM      1  O   HOH     1     -24.131  12.189 -24.174  0.00  0.00    +0.000 OA
ENDROOT
TORSDOF 0
REMARK  Name = ../refined-set-2016/4m6u/4m6u_pocket.pdb
REMARK  160 active torsions:
REMARK  status: ('A' for Active; 'I' for Inactive)
REMARK    1  A    between atoms: _1  and  _3
REMARK    2  A    between atoms: _3  and  _4
REMARK    3  A    between atoms: _3  and  _6
REMARK    4  A    between atoms: _9  and  _11
REMARK    5  A    between atoms: _11  and  _12
REMARK    6  A    between atoms: _11  and  _14
REMARK    7  A    between atoms: _14  and  _15
REMARK    8  A    between atoms: _20  and  _22
REMARK    9  A    between atoms: _22  and  _23
REMARK   10  A    between atoms: _22  and  _25
REMARK   11  A    between atoms: _25  and  _26
REMARK   12  A    between atoms: _29  and  _31
REMARK   13  A    between atoms: _31  and  _32
REMARK   14  A    between atoms: _35  and  _37
REMARK   15  A    between atoms: _37  and  _38
REMARK   16  A    between atoms: _37  and  _40
REMARK   17  A    between atoms: _43  and  _45
REMARK   18  A    between atoms: _45  and  _46
REMARK   19  A    between atoms: _45  and  _48
REMARK   20  A    between atoms: _51  and  _53
REMARK   21  A    between atoms: _53  and  _54
REMARK   22  A    between atoms: _53  and  _56
REMARK   23  A    between atoms: _56  and  _57
REMARK   24  A    between atoms: _63  and  _65
REMARK   25  A    between atoms: _65  and  _66
REMARK   26  A    between atoms: _65  and  _68
REMARK   27  A    between atoms: _68  and  _69
REMARK   28  A    between atoms: _74  and  _75
REMARK   29  A    between atoms: _77  and  _79
REMARK   30  A    between atoms: _79  and  _80
REMARK   31  A    between atoms: _79  and  _82
REMARK   32  A    between atoms: _82  and  _83
REMARK   33  A    between atoms: _88  and  _89
REMARK   34  A    between atoms: _91  and  _93
REMARK   35  A    between atoms: _93  and  _94
REMARK   36  A    between atoms: _93  and  _96
REMARK   37  A    between atoms: _96  and  _97
REMARK   38  A    between atoms: _99  and  _101
REMARK   39  A    between atoms: _101  and  _102
REMARK   40  A    between atoms: _101  and  _104
REMARK   41  A    between atoms: _104  and  _105
REMARK   42  A    between atoms: _110  and  _112
REMARK   43  A    between atoms: _112  and  _113
REMARK   44  A    between atoms: _112  and  _115
REMARK   45  A    between atoms: _115  and  _116
REMARK   46  A    between atoms: _118  and  _120
REMARK   47  A    between atoms: _120  and  _121
REMARK   48  A    between atoms: _120  and  _123
REMARK   49  A    between atoms: _123  and  _124
REMARK   50  A    between atoms: _124  and  _125
REMARK   51  A    between atoms: _125  and  _126
REMARK   52  A    between atoms: _126  and  _127
REMARK   53  A    between atoms: _131  and  _133
REMARK   54  A    between atoms: _133  and  _134
REMARK   55  A    between atoms: _133  and  _136
REMARK   56  A    between atoms: _136  and  _137
REMARK   57  A    between atoms: _137  and  _138
REMARK   58  A    between atoms: _138  and  _139
REMARK   59  A    between atoms: _139  and  _140
REMARK   60  A    between atoms: _144  and  _146
REMARK   61  A    between atoms: _146  and  _147
REMARK   62  A    between atoms: _146  and  _149
REMARK   63  A    between atoms: _149  and  _150
REMARK   64  A    between atoms: _153  and  _155
REMARK   65  A    between atoms: _155  and  _156
REMARK   66  A    between atoms: _155  and  _158
REMARK   67  A    between atoms: _158  and  _159
REMARK   68  A    between atoms: _164  and  _165
REMARK   69  A    between atoms: _167  and  _169
REMARK   70  A    between atoms: _169  and  _170
REMARK   71  A    between atoms: _169  and  _172
REMARK   72  A    between atoms: _172  and  _173
REMARK   73  A    between atoms: _178  and  _180
REMARK   74  A    between atoms: _180  and  _181
REMARK   75  A    between atoms: _180  and  _183
REMARK   76  A    between atoms: _183  and  _184
REMARK   77  A    between atoms: _184  and  _185
REMARK   78  A    between atoms: _190  and  _192
REMARK   79  A    between atoms: _192  and  _193
REMARK   80  A    between atoms: _192  and  _195
REMARK   81  A    between atoms: _195  and  _196
REMARK   82  A    between atoms: _206  and  _208
REMARK   83  A    between atoms: _208  and  _209
REMARK   84  A    between atoms: _208  and  _211
REMARK   85  A    between atoms: _211  and  _212
REMARK   86  A    between atoms: _212  and  _213
REMARK   87  A    between atoms: _213  and  _215
REMARK   88  A    between atoms: _215  and  MG_372
REMARK   89  A    between atoms: _216  and  _218
REMARK   90  A    between atoms: _218  and  _219
REMARK   91  A    between atoms: _218  and  _221
REMARK   92  A    between atoms: _221  and  _222
REMARK   93  A    between atoms: _222  and  _223
REMARK   94  A    between atoms: _226  and  _228
REMARK   95  A    between atoms: _228  and  _229
REMARK   96  A    between atoms: _228  and  _231
REMARK   97  A    between atoms: _231  and  _232
REMARK   98  A    between atoms: _232  and  _233
REMARK   99  A    between atoms: _238  and  _240
REMARK  100  A    between atoms: _240  and  _241
REMARK  101  A    between atoms: _240  and  _243
REMARK  102  A    between atoms: _243  and  _244
REMARK  103  A    between atoms: _244  and  _245
REMARK  104  A    between atoms: _245  and  _246
REMARK  105  A    between atoms: _246  and  MG_372
REMARK  106  A    between atoms: _248  and  _250
REMARK  107  A    between atoms: _250  and  _251
REMARK  108  A    between atoms: _250  and  _253
REMARK  109  A    between atoms: _253  and  _254
REMARK  110  A    between atoms: _259  and  _261
REMARK  111  A    between atoms: _261  and  _262
REMARK  112  A    between atoms: _261  and  _264
REMARK  113  A    between atoms: _264  and  _265
REMARK  114  A    between atoms: _265  and  _266
REMARK  115  A    between atoms: _268  and  _270
REMARK  116  A    between atoms: _270  and  _271
REMARK  117  A    between atoms: _270  and  _273
REMARK  118  A    between atoms: _273  and  _274
REMARK  119  A    between atoms: _277  and  _279
REMARK  120  A    between atoms: _279  and  _280
REMARK  121  A    between atoms: _279  and  _282
REMARK  122  A    between atoms: _282  and  _283
REMARK  123  A    between atoms: _283  and  _284
REMARK  124  A    between atoms: _284  and  _285
REMARK  125  A    between atoms: _285  and  _286
REMARK  126  A    between atoms: _290  and  _292
REMARK  127  A    between atoms: _292  and  _293
REMARK  128  A    between atoms: _292  and  _295
REMARK  129  A    between atoms: _295  and  _296
REMARK  130  A    between atoms: _298  and  _300
REMARK  131  A    between atoms: _300  and  _301
REMARK  132  A    between atoms: _300  and  _303
REMARK  133  A    between atoms: _303  and  _304
REMARK  134  A    between atoms: _309  and  _311
REMARK  135  A    between atoms: _311  and  _312
REMARK  136  A    between atoms: _311  and  _314
REMARK  137  A    between atoms: _314  and  _315
REMARK  138  A    between atoms: _318  and  _320
REMARK  139  A    between atoms: _320  and  _321
REMARK  140  A    between atoms: _320  and  _323
REMARK  141  A    between atoms: _323  and  _324
REMARK  142  A    between atoms: _324  and  _325
REMARK  143  A    between atoms: _328  and  _330
REMARK  144  A    between atoms: _330  and  _331
REMARK  145  A    between atoms: _330  and  _333
REMARK  146  A    between atoms: _333  and  _334
REMARK  147  A    between atoms: _334  and  _335
REMARK  148  A    between atoms: _335  and  _336
REMARK  149  A    between atoms: _345  and  _347
REMARK  150  A    between atoms: _347  and  _348
REMARK  151  A    between atoms: _347  and  _350
REMARK  152  A    between atoms: _350  and  _351
REMARK  153  A    between atoms: _354  and  _356
REMARK  154  A    between atoms: _356  and  _357
REMARK  155  A    between atoms: _356  and  _359
REMARK  156  A    between atoms: _359  and  _360
REMARK  157  A    between atoms: _363  and  _365
REMARK  158  A    between atoms: _365  and  _366
REMARK  159  A    between atoms: _365  and  _368
REMARK  160  A    between atoms: _368  and  _369
REMARK                            x       y       z     vdW  Elec       q    Type
REMARK                         _______ _______ _______ _____ _____    ______ ____
ROOT
ATOM      1  O   HOH     1     -19.295  15.406 -27.431  0.00  0.00    +0.000 OA
ENDROOT
TORSDOF 0
REMARK  Name = ../refined-set-2016/4m6u/4m6u_pocket.pdb
REMARK  160 active torsions:
REMARK  status: ('A' for Active; 'I' for Inactive)
REMARK    1  A    between atoms: _1  and  _3
REMARK    2  A    between atoms: _3  and  _4
REMARK    3  A    between atoms: _3  and  _6
REMARK    4  A    between atoms: _9  and  _11
REMARK    5  A    between atoms: _11  and  _12
REMARK    6  A    between atoms: _11  and  _14
REMARK    7  A    between atoms: _14  and  _15
REMARK    8  A    between atoms: _20  and  _22
REMARK    9  A    between atoms: _22  and  _23
REMARK   10  A    between atoms: _22  and  _25
REMARK   11  A    between atoms: _25  and  _26
REMARK   12  A    between atoms: _29  and  _31
REMARK   13  A    between atoms: _31  and  _32
REMARK   14  A    between atoms: _35  and  _37
REMARK   15  A    between atoms: _37  and  _38
REMARK   16  A    between atoms: _37  and  _40
REMARK   17  A    between atoms: _43  and  _45
REMARK   18  A    between atoms: _45  and  _46
REMARK   19  A    between atoms: _45  and  _48
REMARK   20  A    between atoms: _51  and  _53
REMARK   21  A    between atoms: _53  and  _54
REMARK   22  A    between atoms: _53  and  _56
REMARK   23  A    between atoms: _56  and  _57
REMARK   24  A    between atoms: _63  and  _65
REMARK   25  A    between atoms: _65  and  _66
REMARK   26  A    between atoms: _65  and  _68
REMARK   27  A    between atoms: _68  and  _69
REMARK   28  A    between atoms: _74  and  _75
REMARK   29  A    between atoms: _77  and  _79
REMARK   30  A    between atoms: _79  and  _80
REMARK   31  A    between atoms: _79  and  _82
REMARK   32  A    between atoms: _82  and  _83
REMARK   33  A    between atoms: _88  and  _89
REMARK   34  A    between atoms: _91  and  _93
REMARK   35  A    between atoms: _93  and  _94
REMARK   36  A    between atoms: _93  and  _96
REMARK   37  A    between atoms: _96  and  _97
REMARK   38  A    between atoms: _99  and  _101
REMARK   39  A    between atoms: _101  and  _102
REMARK   40  A    between atoms: _101  and  _104
REMARK   41  A    between atoms: _104  and  _105
REMARK   42  A    between atoms: _110  and  _112
REMARK   43  A    between atoms: _112  and  _113
REMARK   44  A    between atoms: _112  and  _115
REMARK   45  A    between atoms: _115  and  _116
REMARK   46  A    between atoms: _118  and  _120
REMARK   47  A    between atoms: _120  and  _121
REMARK   48  A    between atoms: _120  and  _123
REMARK   49  A    between atoms: _123  and  _124
REMARK   50  A    between atoms: _124  and  _125
REMARK   51  A    between atoms: _125  and  _126
REMARK   52  A    between atoms: _126  and  _127
REMARK   53  A    between atoms: _131  and  _133
REMARK   54  A    between atoms: _133  and  _134
REMARK   55  A    between atoms: _133  and  _136
REMARK   56  A    between atoms: _136  and  _137
REMARK   57  A    between atoms: _137  and  _138
REMARK   58  A    between atoms: _138  and  _139
REMARK   59  A    between atoms: _139  and  _140
REMARK   60  A    between atoms: _144  and  _146
REMARK   61  A    between atoms: _146  and  _147
REMARK   62  A    between atoms: _146  and  _149
REMARK   63  A    between atoms: _149  and  _150
REMARK   64  A    between atoms: _153  and  _155
REMARK   65  A    between atoms: _155  and  _156
REMARK   66  A    between atoms: _155  and  _158
REMARK   67  A    between atoms: _158  and  _159
REMARK   68  A    between atoms: _164  and  _165
REMARK   69  A    between atoms: _167  and  _169
REMARK   70  A    between atoms: _169  and  _170
REMARK   71  A    between atoms: _169  and  _172
REMARK   72  A    between atoms: _172  and  _173
REMARK   73  A    between atoms: _178  and  _180
REMARK   74  A    between atoms: _180  and  _181
REMARK   75  A    between atoms: _180  and  _183
REMARK   76  A    between atoms: _183  and  _184
REMARK   77  A    between atoms: _184  and  _185
REMARK   78  A    between atoms: _190  and  _192
REMARK   79  A    between atoms: _192  and  _193
REMARK   80  A    between atoms: _192  and  _195
REMARK   81  A    between atoms: _195  and  _196
REMARK   82  A    between atoms: _206  and  _208
REMARK   83  A    between atoms: _208  and  _209
REMARK   84  A    between atoms: _208  and  _211
REMARK   85  A    between atoms: _211  and  _212
REMARK   86  A    between atoms: _212  and  _213
REMARK   87  A    between atoms: _213  and  _215
REMARK   88  A    between atoms: _215  and  MG_372
REMARK   89  A    between atoms: _216  and  _218
REMARK   90  A    between atoms: _218  and  _219
REMARK   91  A    between atoms: _218  and  _221
REMARK   92  A    between atoms: _221  and  _222
REMARK   93  A    between atoms: _222  and  _223
REMARK   94  A    between atoms: _226  and  _228
REMARK   95  A    between atoms: _228  and  _229
REMARK   96  A    between atoms: _228  and  _231
REMARK   97  A    between atoms: _231  and  _232
REMARK   98  A    between atoms: _232  and  _233
REMARK   99  A    between atoms: _238  and  _240
REMARK  100  A    between atoms: _240  and  _241
REMARK  101  A    between atoms: _240  and  _243
REMARK  102  A    between atoms: _243  and  _244
REMARK  103  A    between atoms: _244  and  _245
REMARK  104  A    between atoms: _245  and  _246
REMARK  105  A    between atoms: _246  and  MG_372
REMARK  106  A    between atoms: _248  and  _250
REMARK  107  A    between atoms: _250  and  _251
REMARK  108  A    between atoms: _250  and  _253
REMARK  109  A    between atoms: _253  and  _254
REMARK  110  A    between atoms: _259  and  _261
REMARK  111  A    between atoms: _261  and  _262
REMARK  112  A    between atoms: _261  and  _264
REMARK  113  A    between atoms: _264  and  _265
REMARK  114  A    between atoms: _265  and  _266
REMARK  115  A    between atoms: _268  and  _270
REMARK  116  A    between atoms: _270  and  _271
REMARK  117  A    between atoms: _270  and  _273
REMARK  118  A    between atoms: _273  and  _274
REMARK  119  A    between atoms: _277  and  _279
REMARK  120  A    between atoms: _279  and  _280
REMARK  121  A    between atoms: _279  and  _282
REMARK  122  A    between atoms: _282  and  _283
REMARK  123  A    between atoms: _283  and  _284
REMARK  124  A    between atoms: _284  and  _285
REMARK  125  A    between atoms: _285  and  _286
REMARK  126  A    between atoms: _290  and  _292
REMARK  127  A    between atoms: _292  and  _293
REMARK  128  A    between atoms: _292  and  _295
REMARK  129  A    between atoms: _295  and  _296
REMARK  130  A    between atoms: _298  and  _300
REMARK  131  A    between atoms: _300  and  _301
REMARK  132  A    between atoms: _300  and  _303
REMARK  133  A    between atoms: _303  and  _304
REMARK  134  A    between atoms: _309  and  _311
REMARK  135  A    between atoms: _311  and  _312
REMARK  136  A    between atoms: _311  and  _314
REMARK  137  A    between atoms: _314  and  _315
REMARK  138  A    between atoms: _318  and  _320
REMARK  139  A    between atoms: _320  and  _321
REMARK  140  A    between atoms: _320  and  _323
REMARK  141  A    between atoms: _323  and  _324
REMARK  142  A    between atoms: _324  and  _325
REMARK  143  A    between atoms: _328  and  _330
REMARK  144  A    between atoms: _330  and  _331
REMARK  145  A    between atoms: _330  and  _333
REMARK  146  A    between atoms: _333  and  _334
REMARK  147  A    between atoms: _334  and  _335
REMARK  148  A    between atoms: _335  and  _336
REMARK  149  A    between atoms: _345  and  _347
REMARK  150  A    between atoms: _347  and  _348
REMARK  151  A    between atoms: _347  and  _350
REMARK  152  A    between atoms: _350  and  _351
REMARK  153  A    between atoms: _354  and  _356
REMARK  154  A    between atoms: _356  and  _357
REMARK  155  A    between atoms: _356  and  _359
REMARK  156  A    between atoms: _359  and  _360
REMARK  157  A    between atoms: _363  and  _365
REMARK  158  A    between atoms: _365  and  _366
REMARK  159  A    between atoms: _365  and  _368
REMARK  160  A    between atoms: _368  and  _369
REMARK                            x       y       z     vdW  Elec       q    Type
REMARK                         _______ _______ _______ _____ _____    ______ ____
ROOT
ATOM      1  O   HOH     1     -17.252  21.623 -27.011  0.00  0.00    +0.000 OA
ENDROOT
TORSDOF 0
REMARK  Name = ../refined-set-2016/4m6u/4m6u_pocket.pdb
REMARK  160 active torsions:
REMARK  status: ('A' for Active; 'I' for Inactive)
REMARK    1  A    between atoms: _1  and  _3
REMARK    2  A    between atoms: _3  and  _4
REMARK    3  A    between atoms: _3  and  _6
REMARK    4  A    between atoms: _9  and  _11
REMARK    5  A    between atoms: _11  and  _12
REMARK    6  A    between atoms: _11  and  _14
REMARK    7  A    between atoms: _14  and  _15
REMARK    8  A    between atoms: _20  and  _22
REMARK    9  A    between atoms: _22  and  _23
REMARK   10  A    between atoms: _22  and  _25
REMARK   11  A    between atoms: _25  and  _26
REMARK   12  A    between atoms: _29  and  _31
REMARK   13  A    between atoms: _31  and  _32
REMARK   14  A    between atoms: _35  and  _37
REMARK   15  A    between atoms: _37  and  _38
REMARK   16  A    between atoms: _37  and  _40
REMARK   17  A    between atoms: _43  and  _45
REMARK   18  A    between atoms: _45  and  _46
REMARK   19  A    between atoms: _45  and  _48
REMARK   20  A    between atoms: _51  and  _53
REMARK   21  A    between atoms: _53  and  _54
REMARK   22  A    between atoms: _53  and  _56
REMARK   23  A    between atoms: _56  and  _57
REMARK   24  A    between atoms: _63  and  _65
REMARK   25  A    between atoms: _65  and  _66
REMARK   26  A    between atoms: _65  and  _68
REMARK   27  A    between atoms: _68  and  _69
REMARK   28  A    between atoms: _74  and  _75
REMARK   29  A    between atoms: _77  and  _79
REMARK   30  A    between atoms: _79  and  _80
REMARK   31  A    between atoms: _79  and  _82
REMARK   32  A    between atoms: _82  and  _83
REMARK   33  A    between atoms: _88  and  _89
REMARK   34  A    between atoms: _91  and  _93
REMARK   35  A    between atoms: _93  and  _94
REMARK   36  A    between atoms: _93  and  _96
REMARK   37  A    between atoms: _96  and  _97
REMARK   38  A    between atoms: _99  and  _101
REMARK   39  A    between atoms: _101  and  _102
REMARK   40  A    between atoms: _101  and  _104
REMARK   41  A    between atoms: _104  and  _105
REMARK   42  A    between atoms: _110  and  _112
REMARK   43  A    between atoms: _112  and  _113
REMARK   44  A    between atoms: _112  and  _115
REMARK   45  A    between atoms: _115  and  _116
REMARK   46  A    between atoms: _118  and  _120
REMARK   47  A    between atoms: _120  and  _121
REMARK   48  A    between atoms: _120  and  _123
REMARK   49  A    between atoms: _123  and  _124
REMARK   50  A    between atoms: _124  and  _125
REMARK   51  A    between atoms: _125  and  _126
REMARK   52  A    between atoms: _126  and  _127
REMARK   53  A    between atoms: _131  and  _133
REMARK   54  A    between atoms: _133  and  _134
REMARK   55  A    between atoms: _133  and  _136
REMARK   56  A    between atoms: _136  and  _137
REMARK   57  A    between atoms: _137  and  _138
REMARK   58  A    between atoms: _138  and  _139
REMARK   59  A    between atoms: _139  and  _140
REMARK   60  A    between atoms: _144  and  _146
REMARK   61  A    between atoms: _146  and  _147
REMARK   62  A    between atoms: _146  and  _149
REMARK   63  A    between atoms: _149  and  _150
REMARK   64  A    between atoms: _153  and  _155
REMARK   65  A    between atoms: _155  and  _156
REMARK   66  A    between atoms: _155  and  _158
REMARK   67  A    between atoms: _158  and  _159
REMARK   68  A    between atoms: _164  and  _165
REMARK   69  A    between atoms: _167  and  _169
REMARK   70  A    between atoms: _169  and  _170
REMARK   71  A    between atoms: _169  and  _172
REMARK   72  A    between atoms: _172  and  _173
REMARK   73  A    between atoms: _178  and  _180
REMARK   74  A    between atoms: _180  and  _181
REMARK   75  A    between atoms: _180  and  _183
REMARK   76  A    between atoms: _183  and  _184
REMARK   77  A    between atoms: _184  and  _185
REMARK   78  A    between atoms: _190  and  _192
REMARK   79  A    between atoms: _192  and  _193
REMARK   80  A    between atoms: _192  and  _195
REMARK   81  A    between atoms: _195  and  _196
REMARK   82  A    between atoms: _206  and  _208
REMARK   83  A    between atoms: _208  and  _209
REMARK   84  A    between atoms: _208  and  _211
REMARK   85  A    between atoms: _211  and  _212
REMARK   86  A    between atoms: _212  and  _213
REMARK   87  A    between atoms: _213  and  _215
REMARK   88  A    between atoms: _215  and  MG_372
REMARK   89  A    between atoms: _216  and  _218
REMARK   90  A    between atoms: _218  and  _219
REMARK   91  A    between atoms: _218  and  _221
REMARK   92  A    between atoms: _221  and  _222
REMARK   93  A    between atoms: _222  and  _223
REMARK   94  A    between atoms: _226  and  _228
REMARK   95  A    between atoms: _228  and  _229
REMARK   96  A    between atoms: _228  and  _231
REMARK   97  A    between atoms: _231  and  _232
REMARK   98  A    between atoms: _232  and  _233
REMARK   99  A    between atoms: _238  and  _240
REMARK  100  A    between atoms: _240  and  _241
REMARK  101  A    between atoms: _240  and  _243
REMARK  102  A    between atoms: _243  and  _244
REMARK  103  A    between atoms: _244  and  _245
REMARK  104  A    between atoms: _245  and  _246
REMARK  105  A    between atoms: _246  and  MG_372
REMARK  106  A    between atoms: _248  and  _250
REMARK  107  A    between atoms: _250  and  _251
REMARK  108  A    between atoms: _250  and  _253
REMARK  109  A    between atoms: _253  and  _254
REMARK  110  A    between atoms: _259  and  _261
REMARK  111  A    between atoms: _261  and  _262
REMARK  112  A    between atoms: _261  and  _264
REMARK  113  A    between atoms: _264  and  _265
REMARK  114  A    between atoms: _265  and  _266
REMARK  115  A    between atoms: _268  and  _270
REMARK  116  A    between atoms: _270  and  _271
REMARK  117  A    between atoms: _270  and  _273
REMARK  118  A    between atoms: _273  and  _274
REMARK  119  A    between atoms: _277  and  _279
REMARK  120  A    between atoms: _279  and  _280
REMARK  121  A    between atoms: _279  and  _282
REMARK  122  A    between atoms: _282  and  _283
REMARK  123  A    between atoms: _283  and  _284
REMARK  124  A    between atoms: _284  and  _285
REMARK  125  A    between atoms: _285  and  _286
REMARK  126  A    between atoms: _290  and  _292
REMARK  127  A    between atoms: _292  and  _293
REMARK  128  A    between atoms: _292  and  _295
REMARK  129  A    between atoms: _295  and  _296
REMARK  130  A    between atoms: _298  and  _300
REMARK  131  A    between atoms: _300  and  _301
REMARK  132  A    between atoms: _300  and  _303
REMARK  133  A    between atoms: _303  and  _304
REMARK  134  A    between atoms: _309  and  _311
REMARK  135  A    between atoms: _311  and  _312
REMARK  136  A    between atoms: _311  and  _314
REMARK  137  A    between atoms: _314  and  _315
REMARK  138  A    between atoms: _318  and  _320
REMARK  139  A    between atoms: _320  and  _321
REMARK  140  A    between atoms: _320  and  _323
REMARK  141  A    between atoms: _323  and  _324
REMARK  142  A    between atoms: _324  and  _325
REMARK  143  A    between atoms: _328  and  _330
REMARK  144  A    between atoms: _330  and  _331
REMARK  145  A    between atoms: _330  and  _333
REMARK  146  A    between atoms: _333  and  _334
REMARK  147  A    between atoms: _334  and  _335
REMARK  148  A    between atoms: _335  and  _336
REMARK  149  A    between atoms: _345  and  _347
REMARK  150  A    between atoms: _347  and  _348
REMARK  151  A    between atoms: _347  and  _350
REMARK  152  A    between atoms: _350  and  _351
REMARK  153  A    between atoms: _354  and  _356
REMARK  154  A    between atoms: _356  and  _357
REMARK  155  A    between atoms: _356  and  _359
REMARK  156  A    between atoms: _359  and  _360
REMARK  157  A    between atoms: _363  and  _365
REMARK  158  A    between atoms: _365  and  _366
REMARK  159  A    between atoms: _365  and  _368
REMARK  160  A    between atoms: _368  and  _369
REMARK                            x       y       z     vdW  Elec       q    Type
REMARK                         _______ _______ _______ _____ _____    ______ ____
ROOT
ATOM      1  O   HOH     1     -22.800  20.700 -30.764  0.00  0.00    +0.000 OA
ENDROOT
TORSDOF 0
REMARK  Name = ../refined-set-2016/4m6u/4m6u_pocket.pdb
REMARK  160 active torsions:
REMARK  status: ('A' for Active; 'I' for Inactive)
REMARK    1  A    between atoms: _1  and  _3
REMARK    2  A    between atoms: _3  and  _4
REMARK    3  A    between atoms: _3  and  _6
REMARK    4  A    between atoms: _9  and  _11
REMARK    5  A    between atoms: _11  and  _12
REMARK    6  A    between atoms: _11  and  _14
REMARK    7  A    between atoms: _14  and  _15
REMARK    8  A    between atoms: _20  and  _22
REMARK    9  A    between atoms: _22  and  _23
REMARK   10  A    between atoms: _22  and  _25
REMARK   11  A    between atoms: _25  and  _26
REMARK   12  A    between atoms: _29  and  _31
REMARK   13  A    between atoms: _31  and  _32
REMARK   14  A    between atoms: _35  and  _37
REMARK   15  A    between atoms: _37  and  _38
REMARK   16  A    between atoms: _37  and  _40
REMARK   17  A    between atoms: _43  and  _45
REMARK   18  A    between atoms: _45  and  _46
REMARK   19  A    between atoms: _45  and  _48
REMARK   20  A    between atoms: _51  and  _53
REMARK   21  A    between atoms: _53  and  _54
REMARK   22  A    between atoms: _53  and  _56
REMARK   23  A    between atoms: _56  and  _57
REMARK   24  A    between atoms: _63  and  _65
REMARK   25  A    between atoms: _65  and  _66
REMARK   26  A    between atoms: _65  and  _68
REMARK   27  A    between atoms: _68  and  _69
REMARK   28  A    between atoms: _74  and  _75
REMARK   29  A    between atoms: _77  and  _79
REMARK   30  A    between atoms: _79  and  _80
REMARK   31  A    between atoms: _79  and  _82
REMARK   32  A    between atoms: _82  and  _83
REMARK   33  A    between atoms: _88  and  _89
REMARK   34  A    between atoms: _91  and  _93
REMARK   35  A    between atoms: _93  and  _94
REMARK   36  A    between atoms: _93  and  _96
REMARK   37  A    between atoms: _96  and  _97
REMARK   38  A    between atoms: _99  and  _101
REMARK   39  A    between atoms: _101  and  _102
REMARK   40  A    between atoms: _101  and  _104
REMARK   41  A    between atoms: _104  and  _105
REMARK   42  A    between atoms: _110  and  _112
REMARK   43  A    between atoms: _112  and  _113
REMARK   44  A    between atoms: _112  and  _115
REMARK   45  A    between atoms: _115  and  _116
REMARK   46  A    between atoms: _118  and  _120
REMARK   47  A    between atoms: _120  and  _121
REMARK   48  A    between atoms: _120  and  _123
REMARK   49  A    between atoms: _123  and  _124
REMARK   50  A    between atoms: _124  and  _125
REMARK   51  A    between atoms: _125  and  _126
REMARK   52  A    between atoms: _126  and  _127
REMARK   53  A    between atoms: _131  and  _133
REMARK   54  A    between atoms: _133  and  _134
REMARK   55  A    between atoms: _133  and  _136
REMARK   56  A    between atoms: _136  and  _137
REMARK   57  A    between atoms: _137  and  _138
REMARK   58  A    between atoms: _138  and  _139
REMARK   59  A    between atoms: _139  and  _140
REMARK   60  A    between atoms: _144  and  _146
REMARK   61  A    between atoms: _146  and  _147
REMARK   62  A    between atoms: _146  and  _149
REMARK   63  A    between atoms: _149  and  _150
REMARK   64  A    between atoms: _153  and  _155
REMARK   65  A    between atoms: _155  and  _156
REMARK   66  A    between atoms: _155  and  _158
REMARK   67  A    between atoms: _158  and  _159
REMARK   68  A    between atoms: _164  and  _165
REMARK   69  A    between atoms: _167  and  _169
REMARK   70  A    between atoms: _169  and  _170
REMARK   71  A    between atoms: _169  and  _172
REMARK   72  A    between atoms: _172  and  _173
REMARK   73  A    between atoms: _178  and  _180
REMARK   74  A    between atoms: _180  and  _181
REMARK   75  A    between atoms: _180  and  _183
REMARK   76  A    between atoms: _183  and  _184
REMARK   77  A    between atoms: _184  and  _185
REMARK   78  A    between atoms: _190  and  _192
REMARK   79  A    between atoms: _192  and  _193
REMARK   80  A    between atoms: _192  and  _195
REMARK   81  A    between atoms: _195  and  _196
REMARK   82  A    between atoms: _206  and  _208
REMARK   83  A    between atoms: _208  and  _209
REMARK   84  A    between atoms: _208  and  _211
REMARK   85  A    between atoms: _211  and  _212
REMARK   86  A    between atoms: _212  and  _213
REMARK   87  A    between atoms: _213  and  _215
REMARK   88  A    between atoms: _215  and  MG_372
REMARK   89  A    between atoms: _216  and  _218
REMARK   90  A    between atoms: _218  and  _219
REMARK   91  A    between atoms: _218  and  _221
REMARK   92  A    between atoms: _221  and  _222
REMARK   93  A    between atoms: _222  and  _223
REMARK   94  A    between atoms: _226  and  _228
REMARK   95  A    between atoms: _228  and  _229
REMARK   96  A    between atoms: _228  and  _231
REMARK   97  A    between atoms: _231  and  _232
REMARK   98  A    between atoms: _232  and  _233
REMARK   99  A    between atoms: _238  and  _240
REMARK  100  A    between atoms: _240  and  _241
REMARK  101  A    between atoms: _240  and  _243
REMARK  102  A    between atoms: _243  and  _244
REMARK  103  A    between atoms: _244  and  _245
REMARK  104  A    between atoms: _245  and  _246
REMARK  105  A    between atoms: _246  and  MG_372
REMARK  106  A    between atoms: _248  and  _250
REMARK  107  A    between atoms: _250  and  _251
REMARK  108  A    between atoms: _250  and  _253
REMARK  109  A    between atoms: _253  and  _254
REMARK  110  A    between atoms: _259  and  _261
REMARK  111  A    between atoms: _261  and  _262
REMARK  112  A    between atoms: _261  and  _264
REMARK  113  A    between atoms: _264  and  _265
REMARK  114  A    between atoms: _265  and  _266
REMARK  115  A    between atoms: _268  and  _270
REMARK  116  A    between atoms: _270  and  _271
REMARK  117  A    between atoms: _270  and  _273
REMARK  118  A    between atoms: _273  and  _274
REMARK  119  A    between atoms: _277  and  _279
REMARK  120  A    between atoms: _279  and  _280
REMARK  121  A    between atoms: _279  and  _282
REMARK  122  A    between atoms: _282  and  _283
REMARK  123  A    between atoms: _283  and  _284
REMARK  124  A    between atoms: _284  and  _285
REMARK  125  A    between atoms: _285  and  _286
REMARK  126  A    between atoms: _290  and  _292
REMARK  127  A    between atoms: _292  and  _293
REMARK  128  A    between atoms: _292  and  _295
REMARK  129  A    between atoms: _295  and  _296
REMARK  130  A    between atoms: _298  and  _300
REMARK  131  A    between atoms: _300  and  _301
REMARK  132  A    between atoms: _300  and  _303
REMARK  133  A    between atoms: _303  and  _304
REMARK  134  A    between atoms: _309  and  _311
REMARK  135  A    between atoms: _311  and  _312
REMARK  136  A    between atoms: _311  and  _314
REMARK  137  A    between atoms: _314  and  _315
REMARK  138  A    between atoms: _318  and  _320
REMARK  139  A    between atoms: _320  and  _321
REMARK  140  A    between atoms: _320  and  _323
REMARK  141  A    between atoms: _323  and  _324
REMARK  142  A    between atoms: _324  and  _325
REMARK  143  A    between atoms: _328  and  _330
REMARK  144  A    between atoms: _330  and  _331
REMARK  145  A    between atoms: _330  and  _333
REMARK  146  A    between atoms: _333  and  _334
REMARK  147  A    between atoms: _334  and  _335
REMARK  148  A    between atoms: _335  and  _336
REMARK  149  A    between atoms: _345  and  _347
REMARK  150  A    between atoms: _347  and  _348
REMARK  151  A    between atoms: _347  and  _350
REMARK  152  A    between atoms: _350  and  _351
REMARK  153  A    between atoms: _354  and  _356
REMARK  154  A    between atoms: _356  and  _357
REMARK  155  A    between atoms: _356  and  _359
REMARK  156  A    between atoms: _359  and  _360
REMARK  157  A    between atoms: _363  and  _365
REMARK  158  A    between atoms: _365  and  _366
REMARK  159  A    between atoms: _365  and  _368
REMARK  160  A    between atoms: _368  and  _369
REMARK                            x       y       z     vdW  Elec       q    Type
REMARK                         _______ _______ _______ _____ _____    ______ ____
ROOT
ATOM      1  O   HOH     1     -22.512  18.986 -18.842  0.00  0.00    +0.000 OA
ENDROOT
TORSDOF 0
REMARK  Name = ../refined-set-2016/4m6u/4m6u_pocket.pdb
REMARK  160 active torsions:
REMARK  status: ('A' for Active; 'I' for Inactive)
REMARK    1  A    between atoms: _1  and  _3
REMARK    2  A    between atoms: _3  and  _4
REMARK    3  A    between atoms: _3  and  _6
REMARK    4  A    between atoms: _9  and  _11
REMARK    5  A    between atoms: _11  and  _12
REMARK    6  A    between atoms: _11  and  _14
REMARK    7  A    between atoms: _14  and  _15
REMARK    8  A    between atoms: _20  and  _22
REMARK    9  A    between atoms: _22  and  _23
REMARK   10  A    between atoms: _22  and  _25
REMARK   11  A    between atoms: _25  and  _26
REMARK   12  A    between atoms: _29  and  _31
REMARK   13  A    between atoms: _31  and  _32
REMARK   14  A    between atoms: _35  and  _37
REMARK   15  A    between atoms: _37  and  _38
REMARK   16  A    between atoms: _37  and  _40
REMARK   17  A    between atoms: _43  and  _45
REMARK   18  A    between atoms: _45  and  _46
REMARK   19  A    between atoms: _45  and  _48
REMARK   20  A    between atoms: _51  and  _53
REMARK   21  A    between atoms: _53  and  _54
REMARK   22  A    between atoms: _53  and  _56
REMARK   23  A    between atoms: _56  and  _57
REMARK   24  A    between atoms: _63  and  _65
REMARK   25  A    between atoms: _65  and  _66
REMARK   26  A    between atoms: _65  and  _68
REMARK   27  A    between atoms: _68  and  _69
REMARK   28  A    between atoms: _74  and  _75
REMARK   29  A    between atoms: _77  and  _79
REMARK   30  A    between atoms: _79  and  _80
REMARK   31  A    between atoms: _79  and  _82
REMARK   32  A    between atoms: _82  and  _83
REMARK   33  A    between atoms: _88  and  _89
REMARK   34  A    between atoms: _91  and  _93
REMARK   35  A    between atoms: _93  and  _94
REMARK   36  A    between atoms: _93  and  _96
REMARK   37  A    between atoms: _96  and  _97
REMARK   38  A    between atoms: _99  and  _101
REMARK   39  A    between atoms: _101  and  _102
REMARK   40  A    between atoms: _101  and  _104
REMARK   41  A    between atoms: _104  and  _105
REMARK   42  A    between atoms: _110  and  _112
REMARK   43  A    between atoms: _112  and  _113
REMARK   44  A    between atoms: _112  and  _115
REMARK   45  A    between atoms: _115  and  _116
REMARK   46  A    between atoms: _118  and  _120
REMARK   47  A    between atoms: _120  and  _121
REMARK   48  A    between atoms: _120  and  _123
REMARK   49  A    between atoms: _123  and  _124
REMARK   50  A    between atoms: _124  and  _125
REMARK   51  A    between atoms: _125  and  _126
REMARK   52  A    between atoms: _126  and  _127
REMARK   53  A    between atoms: _131  and  _133
REMARK   54  A    between atoms: _133  and  _134
REMARK   55  A    between atoms: _133  and  _136
REMARK   56  A    between atoms: _136  and  _137
REMARK   57  A    between atoms: _137  and  _138
REMARK   58  A    between atoms: _138  and  _139
REMARK   59  A    between atoms: _139  and  _140
REMARK   60  A    between atoms: _144  and  _146
REMARK   61  A    between atoms: _146  and  _147
REMARK   62  A    between atoms: _146  and  _149
REMARK   63  A    between atoms: _149  and  _150
REMARK   64  A    between atoms: _153  and  _155
REMARK   65  A    between atoms: _155  and  _156
REMARK   66  A    between atoms: _155  and  _158
REMARK   67  A    between atoms: _158  and  _159
REMARK   68  A    between atoms: _164  and  _165
REMARK   69  A    between atoms: _167  and  _169
REMARK   70  A    between atoms: _169  and  _170
REMARK   71  A    between atoms: _169  and  _172
REMARK   72  A    between atoms: _172  and  _173
REMARK   73  A    between atoms: _178  and  _180
REMARK   74  A    between atoms: _180  and  _181
REMARK   75  A    between atoms: _180  and  _183
REMARK   76  A    between atoms: _183  and  _184
REMARK   77  A    between atoms: _184  and  _185
REMARK   78  A    between atoms: _190  and  _192
REMARK   79  A    between atoms: _192  and  _193
REMARK   80  A    between atoms: _192  and  _195
REMARK   81  A    between atoms: _195  and  _196
REMARK   82  A    between atoms: _206  and  _208
REMARK   83  A    between atoms: _208  and  _209
REMARK   84  A    between atoms: _208  and  _211
REMARK   85  A    between atoms: _211  and  _212
REMARK   86  A    between atoms: _212  and  _213
REMARK   87  A    between atoms: _213  and  _215
REMARK   88  A    between atoms: _215  and  MG_372
REMARK   89  A    between atoms: _216  and  _218
REMARK   90  A    between atoms: _218  and  _219
REMARK   91  A    between atoms: _218  and  _221
REMARK   92  A    between atoms: _221  and  _222
REMARK   93  A    between atoms: _222  and  _223
REMARK   94  A    between atoms: _226  and  _228
REMARK   95  A    between atoms: _228  and  _229
REMARK   96  A    between atoms: _228  and  _231
REMARK   97  A    between atoms: _231  and  _232
REMARK   98  A    between atoms: _232  and  _233
REMARK   99  A    between atoms: _238  and  _240
REMARK  100  A    between atoms: _240  and  _241
REMARK  101  A    between atoms: _240  and  _243
REMARK  102  A    between atoms: _243  and  _244
REMARK  103  A    between atoms: _244  and  _245
REMARK  104  A    between atoms: _245  and  _246
REMARK  105  A    between atoms: _246  and  MG_372
REMARK  106  A    between atoms: _248  and  _250
REMARK  107  A    between atoms: _250  and  _251
REMARK  108  A    between atoms: _250  and  _253
REMARK  109  A    between atoms: _253  and  _254
REMARK  110  A    between atoms: _259  and  _261
REMARK  111  A    between atoms: _261  and  _262
REMARK  112  A    between atoms: _261  and  _264
REMARK  113  A    between atoms: _264  and  _265
REMARK  114  A    between atoms: _265  and  _266
REMARK  115  A    between atoms: _268  and  _270
REMARK  116  A    between atoms: _270  and  _271
REMARK  117  A    between atoms: _270  and  _273
REMARK  118  A    between atoms: _273  and  _274
REMARK  119  A    between atoms: _277  and  _279
REMARK  120  A    between atoms: _279  and  _280
REMARK  121  A    between atoms: _279  and  _282
REMARK  122  A    between atoms: _282  and  _283
REMARK  123  A    between atoms: _283  and  _284
REMARK  124  A    between atoms: _284  and  _285
REMARK  125  A    between atoms: _285  and  _286
REMARK  126  A    between atoms: _290  and  _292
REMARK  127  A    between atoms: _292  and  _293
REMARK  128  A    between atoms: _292  and  _295
REMARK  129  A    between atoms: _295  and  _296
REMARK  130  A    between atoms: _298  and  _300
REMARK  131  A    between atoms: _300  and  _301
REMARK  132  A    between atoms: _300  and  _303
REMARK  133  A    between atoms: _303  and  _304
REMARK  134  A    between atoms: _309  and  _311
REMARK  135  A    between atoms: _311  and  _312
REMARK  136  A    between atoms: _311  and  _314
REMARK  137  A    between atoms: _314  and  _315
REMARK  138  A    between atoms: _318  and  _320
REMARK  139  A    between atoms: _320  and  _321
REMARK  140  A    between atoms: _320  and  _323
REMARK  141  A    between atoms: _323  and  _324
REMARK  142  A    between atoms: _324  and  _325
REMARK  143  A    between atoms: _328  and  _330
REMARK  144  A    between atoms: _330  and  _331
REMARK  145  A    between atoms: _330  and  _333
REMARK  146  A    between atoms: _333  and  _334
REMARK  147  A    between atoms: _334  and  _335
REMARK  148  A    between atoms: _335  and  _336
REMARK  149  A    between atoms: _345  and  _347
REMARK  150  A    between atoms: _347  and  _348
REMARK  151  A    between atoms: _347  and  _350
REMARK  152  A    between atoms: _350  and  _351
REMARK  153  A    between atoms: _354  and  _356
REMARK  154  A    between atoms: _356  and  _357
REMARK  155  A    between atoms: _356  and  _359
REMARK  156  A    between atoms: _359  and  _360
REMARK  157  A    between atoms: _363  and  _365
REMARK  158  A    between atoms: _365  and  _366
REMARK  159  A    between atoms: _365  and  _368
REMARK  160  A    between atoms: _368  and  _369
REMARK                            x       y       z     vdW  Elec       q    Type
REMARK                         _______ _______ _______ _____ _____    ______ ____
ROOT
ATOM      1  O   HOH     1     -15.794  22.704 -19.697  0.00  0.00    +0.000 OA
ENDROOT
TORSDOF 0
REMARK  Name = ../refined-set-2016/4m6u/4m6u_pocket.pdb
REMARK  160 active torsions:
REMARK  status: ('A' for Active; 'I' for Inactive)
REMARK    1  A    between atoms: _1  and  _3
REMARK    2  A    between atoms: _3  and  _4
REMARK    3  A    between atoms: _3  and  _6
REMARK    4  A    between atoms: _9  and  _11
REMARK    5  A    between atoms: _11  and  _12
REMARK    6  A    between atoms: _11  and  _14
REMARK    7  A    between atoms: _14  and  _15
REMARK    8  A    between atoms: _20  and  _22
REMARK    9  A    between atoms: _22  and  _23
REMARK   10  A    between atoms: _22  and  _25
REMARK   11  A    between atoms: _25  and  _26
REMARK   12  A    between atoms: _29  and  _31
REMARK   13  A    between atoms: _31  and  _32
REMARK   14  A    between atoms: _35  and  _37
REMARK   15  A    between atoms: _37  and  _38
REMARK   16  A    between atoms: _37  and  _40
REMARK   17  A    between atoms: _43  and  _45
REMARK   18  A    between atoms: _45  and  _46
REMARK   19  A    between atoms: _45  and  _48
REMARK   20  A    between atoms: _51  and  _53
REMARK   21  A    between atoms: _53  and  _54
REMARK   22  A    between atoms: _53  and  _56
REMARK   23  A    between atoms: _56  and  _57
REMARK   24  A    between atoms: _63  and  _65
REMARK   25  A    between atoms: _65  and  _66
REMARK   26  A    between atoms: _65  and  _68
REMARK   27  A    between atoms: _68  and  _69
REMARK   28  A    between atoms: _74  and  _75
REMARK   29  A    between atoms: _77  and  _79
REMARK   30  A    between atoms: _79  and  _80
REMARK   31  A    between atoms: _79  and  _82
REMARK   32  A    between atoms: _82  and  _83
REMARK   33  A    between atoms: _88  and  _89
REMARK   34  A    between atoms: _91  and  _93
REMARK   35  A    between atoms: _93  and  _94
REMARK   36  A    between atoms: _93  and  _96
REMARK   37  A    between atoms: _96  and  _97
REMARK   38  A    between atoms: _99  and  _101
REMARK   39  A    between atoms: _101  and  _102
REMARK   40  A    between atoms: _101  and  _104
REMARK   41  A    between atoms: _104  and  _105
REMARK   42  A    between atoms: _110  and  _112
REMARK   43  A    between atoms: _112  and  _113
REMARK   44  A    between atoms: _112  and  _115
REMARK   45  A    between atoms: _115  and  _116
REMARK   46  A    between atoms: _118  and  _120
REMARK   47  A    between atoms: _120  and  _121
REMARK   48  A    between atoms: _120  and  _123
REMARK   49  A    between atoms: _123  and  _124
REMARK   50  A    between atoms: _124  and  _125
REMARK   51  A    between atoms: _125  and  _126
REMARK   52  A    between atoms: _126  and  _127
REMARK   53  A    between atoms: _131  and  _133
REMARK   54  A    between atoms: _133  and  _134
REMARK   55  A    between atoms: _133  and  _136
REMARK   56  A    between atoms: _136  and  _137
REMARK   57  A    between atoms: _137  and  _138
REMARK   58  A    between atoms: _138  and  _139
REMARK   59  A    between atoms: _139  and  _140
REMARK   60  A    between atoms: _144  and  _146
REMARK   61  A    between atoms: _146  and  _147
REMARK   62  A    between atoms: _146  and  _149
REMARK   63  A    between atoms: _149  and  _150
REMARK   64  A    between atoms: _153  and  _155
REMARK   65  A    between atoms: _155  and  _156
REMARK   66  A    between atoms: _155  and  _158
REMARK   67  A    between atoms: _158  and  _159
REMARK   68  A    between atoms: _164  and  _165
REMARK   69  A    between atoms: _167  and  _169
REMARK   70  A    between atoms: _169  and  _170
REMARK   71  A    between atoms: _169  and  _172
REMARK   72  A    between atoms: _172  and  _173
REMARK   73  A    between atoms: _178  and  _180
REMARK   74  A    between atoms: _180  and  _181
REMARK   75  A    between atoms: _180  and  _183
REMARK   76  A    between atoms: _183  and  _184
REMARK   77  A    between atoms: _184  and  _185
REMARK   78  A    between atoms: _190  and  _192
REMARK   79  A    between atoms: _192  and  _193
REMARK   80  A    between atoms: _192  and  _195
REMARK   81  A    between atoms: _195  and  _196
REMARK   82  A    between atoms: _206  and  _208
REMARK   83  A    between atoms: _208  and  _209
REMARK   84  A    between atoms: _208  and  _211
REMARK   85  A    between atoms: _211  and  _212
REMARK   86  A    between atoms: _212  and  _213
REMARK   87  A    between atoms: _213  and  _215
REMARK   88  A    between atoms: _215  and  MG_372
REMARK   89  A    between atoms: _216  and  _218
REMARK   90  A    between atoms: _218  and  _219
REMARK   91  A    between atoms: _218  and  _221
REMARK   92  A    between atoms: _221  and  _222
REMARK   93  A    between atoms: _222  and  _223
REMARK   94  A    between atoms: _226  and  _228
REMARK   95  A    between atoms: _228  and  _229
REMARK   96  A    between atoms: _228  and  _231
REMARK   97  A    between atoms: _231  and  _232
REMARK   98  A    between atoms: _232  and  _233
REMARK   99  A    between atoms: _238  and  _240
REMARK  100  A    between atoms: _240  and  _241
REMARK  101  A    between atoms: _240  and  _243
REMARK  102  A    between atoms: _243  and  _244
REMARK  103  A    between atoms: _244  and  _245
REMARK  104  A    between atoms: _245  and  _246
REMARK  105  A    between atoms: _246  and  MG_372
REMARK  106  A    between atoms: _248  and  _250
REMARK  107  A    between atoms: _250  and  _251
REMARK  108  A    between atoms: _250  and  _253
REMARK  109  A    between atoms: _253  and  _254
REMARK  110  A    between atoms: _259  and  _261
REMARK  111  A    between atoms: _261  and  _262
REMARK  112  A    between atoms: _261  and  _264
REMARK  113  A    between atoms: _264  and  _265
REMARK  114  A    between atoms: _265  and  _266
REMARK  115  A    between atoms: _268  and  _270
REMARK  116  A    between atoms: _270  and  _271
REMARK  117  A    between atoms: _270  and  _273
REMARK  118  A    between atoms: _273  and  _274
REMARK  119  A    between atoms: _277  and  _279
REMARK  120  A    between atoms: _279  and  _280
REMARK  121  A    between atoms: _279  and  _282
REMARK  122  A    between atoms: _282  and  _283
REMARK  123  A    between atoms: _283  and  _284
REMARK  124  A    between atoms: _284  and  _285
REMARK  125  A    between atoms: _285  and  _286
REMARK  126  A    between atoms: _290  and  _292
REMARK  127  A    between atoms: _292  and  _293
REMARK  128  A    between atoms: _292  and  _295
REMARK  129  A    between atoms: _295  and  _296
REMARK  130  A    between atoms: _298  and  _300
REMARK  131  A    between atoms: _300  and  _301
REMARK  132  A    between atoms: _300  and  _303
REMARK  133  A    between atoms: _303  and  _304
REMARK  134  A    between atoms: _309  and  _311
REMARK  135  A    between atoms: _311  and  _312
REMARK  136  A    between atoms: _311  and  _314
REMARK  137  A    between atoms: _314  and  _315
REMARK  138  A    between atoms: _318  and  _320
REMARK  139  A    between atoms: _320  and  _321
REMARK  140  A    between atoms: _320  and  _323
REMARK  141  A    between atoms: _323  and  _324
REMARK  142  A    between atoms: _324  and  _325
REMARK  143  A    between atoms: _328  and  _330
REMARK  144  A    between atoms: _330  and  _331
REMARK  145  A    between atoms: _330  and  _333
REMARK  146  A    between atoms: _333  and  _334
REMARK  147  A    between atoms: _334  and  _335
REMARK  148  A    between atoms: _335  and  _336
REMARK  149  A    between atoms: _345  and  _347
REMARK  150  A    between atoms: _347  and  _348
REMARK  151  A    between atoms: _347  and  _350
REMARK  152  A    between atoms: _350  and  _351
REMARK  153  A    between atoms: _354  and  _356
REMARK  154  A    between atoms: _356  and  _357
REMARK  155  A    between atoms: _356  and  _359
REMARK  156  A    between atoms: _359  and  _360
REMARK  157  A    between atoms: _363  and  _365
REMARK  158  A    between atoms: _365  and  _366
REMARK  159  A    between atoms: _365  and  _368
REMARK  160  A    between atoms: _368  and  _369
REMARK                            x       y       z     vdW  Elec       q    Type
REMARK                         _______ _______ _______ _____ _____    ______ ____
ROOT
ATOM      1  O   HOH     1     -27.024  22.590 -17.425  0.00  0.00    +0.000 OA
ENDROOT
TORSDOF 0
REMARK  Name = ../refined-set-2016/4m6u/4m6u_pocket.pdb
REMARK  160 active torsions:
REMARK  status: ('A' for Active; 'I' for Inactive)
REMARK    1  A    between atoms: _1  and  _3
REMARK    2  A    between atoms: _3  and  _4
REMARK    3  A    between atoms: _3  and  _6
REMARK    4  A    between atoms: _9  and  _11
REMARK    5  A    between atoms: _11  and  _12
REMARK    6  A    between atoms: _11  and  _14
REMARK    7  A    between atoms: _14  and  _15
REMARK    8  A    between atoms: _20  and  _22
REMARK    9  A    between atoms: _22  and  _23
REMARK   10  A    between atoms: _22  and  _25
REMARK   11  A    between atoms: _25  and  _26
REMARK   12  A    between atoms: _29  and  _31
REMARK   13  A    between atoms: _31  and  _32
REMARK   14  A    between atoms: _35  and  _37
REMARK   15  A    between atoms: _37  and  _38
REMARK   16  A    between atoms: _37  and  _40
REMARK   17  A    between atoms: _43  and  _45
REMARK   18  A    between atoms: _45  and  _46
REMARK   19  A    between atoms: _45  and  _48
REMARK   20  A    between atoms: _51  and  _53
REMARK   21  A    between atoms: _53  and  _54
REMARK   22  A    between atoms: _53  and  _56
REMARK   23  A    between atoms: _56  and  _57
REMARK   24  A    between atoms: _63  and  _65
REMARK   25  A    between atoms: _65  and  _66
REMARK   26  A    between atoms: _65  and  _68
REMARK   27  A    between atoms: _68  and  _69
REMARK   28  A    between atoms: _74  and  _75
REMARK   29  A    between atoms: _77  and  _79
REMARK   30  A    between atoms: _79  and  _80
REMARK   31  A    between atoms: _79  and  _82
REMARK   32  A    between atoms: _82  and  _83
REMARK   33  A    between atoms: _88  and  _89
REMARK   34  A    between atoms: _91  and  _93
REMARK   35  A    between atoms: _93  and  _94
REMARK   36  A    between atoms: _93  and  _96
REMARK   37  A    between atoms: _96  and  _97
REMARK   38  A    between atoms: _99  and  _101
REMARK   39  A    between atoms: _101  and  _102
REMARK   40  A    between atoms: _101  and  _104
REMARK   41  A    between atoms: _104  and  _105
REMARK   42  A    between atoms: _110  and  _112
REMARK   43  A    between atoms: _112  and  _113
REMARK   44  A    between atoms: _112  and  _115
REMARK   45  A    between atoms: _115  and  _116
REMARK   46  A    between atoms: _118  and  _120
REMARK   47  A    between atoms: _120  and  _121
REMARK   48  A    between atoms: _120  and  _123
REMARK   49  A    between atoms: _123  and  _124
REMARK   50  A    between atoms: _124  and  _125
REMARK   51  A    between atoms: _125  and  _126
REMARK   52  A    between atoms: _126  and  _127
REMARK   53  A    between atoms: _131  and  _133
REMARK   54  A    between atoms: _133  and  _134
REMARK   55  A    between atoms: _133  and  _136
REMARK   56  A    between atoms: _136  and  _137
REMARK   57  A    between atoms: _137  and  _138
REMARK   58  A    between atoms: _138  and  _139
REMARK   59  A    between atoms: _139  and  _140
REMARK   60  A    between atoms: _144  and  _146
REMARK   61  A    between atoms: _146  and  _147
REMARK   62  A    between atoms: _146  and  _149
REMARK   63  A    between atoms: _149  and  _150
REMARK   64  A    between atoms: _153  and  _155
REMARK   65  A    between atoms: _155  and  _156
REMARK   66  A    between atoms: _155  and  _158
REMARK   67  A    between atoms: _158  and  _159
REMARK   68  A    between atoms: _164  and  _165
REMARK   69  A    between atoms: _167  and  _169
REMARK   70  A    between atoms: _169  and  _170
REMARK   71  A    between atoms: _169  and  _172
REMARK   72  A    between atoms: _172  and  _173
REMARK   73  A    between atoms: _178  and  _180
REMARK   74  A    between atoms: _180  and  _181
REMARK   75  A    between atoms: _180  and  _183
REMARK   76  A    between atoms: _183  and  _184
REMARK   77  A    between atoms: _184  and  _185
REMARK   78  A    between atoms: _190  and  _192
REMARK   79  A    between atoms: _192  and  _193
REMARK   80  A    between atoms: _192  and  _195
REMARK   81  A    between atoms: _195  and  _196
REMARK   82  A    between atoms: _206  and  _208
REMARK   83  A    between atoms: _208  and  _209
REMARK   84  A    between atoms: _208  and  _211
REMARK   85  A    between atoms: _211  and  _212
REMARK   86  A    between atoms: _212  and  _213
REMARK   87  A    between atoms: _213  and  _215
REMARK   88  A    between atoms: _215  and  MG_372
REMARK   89  A    between atoms: _216  and  _218
REMARK   90  A    between atoms: _218  and  _219
REMARK   91  A    between atoms: _218  and  _221
REMARK   92  A    between atoms: _221  and  _222
REMARK   93  A    between atoms: _222  and  _223
REMARK   94  A    between atoms: _226  and  _228
REMARK   95  A    between atoms: _228  and  _229
REMARK   96  A    between atoms: _228  and  _231
REMARK   97  A    between atoms: _231  and  _232
REMARK   98  A    between atoms: _232  and  _233
REMARK   99  A    between atoms: _238  and  _240
REMARK  100  A    between atoms: _240  and  _241
REMARK  101  A    between atoms: _240  and  _243
REMARK  102  A    between atoms: _243  and  _244
REMARK  103  A    between atoms: _244  and  _245
REMARK  104  A    between atoms: _245  and  _246
REMARK  105  A    between atoms: _246  and  MG_372
REMARK  106  A    between atoms: _248  and  _250
REMARK  107  A    between atoms: _250  and  _251
REMARK  108  A    between atoms: _250  and  _253
REMARK  109  A    between atoms: _253  and  _254
REMARK  110  A    between atoms: _259  and  _261
REMARK  111  A    between atoms: _261  and  _262
REMARK  112  A    between atoms: _261  and  _264
REMARK  113  A    between atoms: _264  and  _265
REMARK  114  A    between atoms: _265  and  _266
REMARK  115  A    between atoms: _268  and  _270
REMARK  116  A    between atoms: _270  and  _271
REMARK  117  A    between atoms: _270  and  _273
REMARK  118  A    between atoms: _273  and  _274
REMARK  119  A    between atoms: _277  and  _279
REMARK  120  A    between atoms: _279  and  _280
REMARK  121  A    between atoms: _279  and  _282
REMARK  122  A    between atoms: _282  and  _283
REMARK  123  A    between atoms: _283  and  _284
REMARK  124  A    between atoms: _284  and  _285
REMARK  125  A    between atoms: _285  and  _286
REMARK  126  A    between atoms: _290  and  _292
REMARK  127  A    between atoms: _292  and  _293
REMARK  128  A    between atoms: _292  and  _295
REMARK  129  A    between atoms: _295  and  _296
REMARK  130  A    between atoms: _298  and  _300
REMARK  131  A    between atoms: _300  and  _301
REMARK  132  A    between atoms: _300  and  _303
REMARK  133  A    between atoms: _303  and  _304
REMARK  134  A    between atoms: _309  and  _311
REMARK  135  A    between atoms: _311  and  _312
REMARK  136  A    between atoms: _311  and  _314
REMARK  137  A    between atoms: _314  and  _315
REMARK  138  A    between atoms: _318  and  _320
REMARK  139  A    between atoms: _320  and  _321
REMARK  140  A    between atoms: _320  and  _323
REMARK  141  A    between atoms: _323  and  _324
REMARK  142  A    between atoms: _324  and  _325
REMARK  143  A    between atoms: _328  and  _330
REMARK  144  A    between atoms: _330  and  _331
REMARK  145  A    between atoms: _330  and  _333
REMARK  146  A    between atoms: _333  and  _334
REMARK  147  A    between atoms: _334  and  _335
REMARK  148  A    between atoms: _335  and  _336
REMARK  149  A    between atoms: _345  and  _347
REMARK  150  A    between atoms: _347  and  _348
REMARK  151  A    between atoms: _347  and  _350
REMARK  152  A    between atoms: _350  and  _351
REMARK  153  A    between atoms: _354  and  _356
REMARK  154  A    between atoms: _356  and  _357
REMARK  155  A    between atoms: _356  and  _359
REMARK  156  A    between atoms: _359  and  _360
REMARK  157  A    between atoms: _363  and  _365
REMARK  158  A    between atoms: _365  and  _366
REMARK  159  A    between atoms: _365  and  _368
REMARK  160  A    between atoms: _368  and  _369
REMARK                            x       y       z     vdW  Elec       q    Type
REMARK                         _______ _______ _______ _____ _____    ______ ____
ROOT
ATOM      1  O   HOH     1     -23.106  25.757 -25.893  0.00  0.00    +0.000 OA
ENDROOT
TORSDOF 0
REMARK  Name = ../refined-set-2016/4m6u/4m6u_pocket.pdb
REMARK  160 active torsions:
REMARK  status: ('A' for Active; 'I' for Inactive)
REMARK    1  A    between atoms: _1  and  _3
REMARK    2  A    between atoms: _3  and  _4
REMARK    3  A    between atoms: _3  and  _6
REMARK    4  A    between atoms: _9  and  _11
REMARK    5  A    between atoms: _11  and  _12
REMARK    6  A    between atoms: _11  and  _14
REMARK    7  A    between atoms: _14  and  _15
REMARK    8  A    between atoms: _20  and  _22
REMARK    9  A    between atoms: _22  and  _23
REMARK   10  A    between atoms: _22  and  _25
REMARK   11  A    between atoms: _25  and  _26
REMARK   12  A    between atoms: _29  and  _31
REMARK   13  A    between atoms: _31  and  _32
REMARK   14  A    between atoms: _35  and  _37
REMARK   15  A    between atoms: _37  and  _38
REMARK   16  A    between atoms: _37  and  _40
REMARK   17  A    between atoms: _43  and  _45
REMARK   18  A    between atoms: _45  and  _46
REMARK   19  A    between atoms: _45  and  _48
REMARK   20  A    between atoms: _51  and  _53
REMARK   21  A    between atoms: _53  and  _54
REMARK   22  A    between atoms: _53  and  _56
REMARK   23  A    between atoms: _56  and  _57
REMARK   24  A    between atoms: _63  and  _65
REMARK   25  A    between atoms: _65  and  _66
REMARK   26  A    between atoms: _65  and  _68
REMARK   27  A    between atoms: _68  and  _69
REMARK   28  A    between atoms: _74  and  _75
REMARK   29  A    between atoms: _77  and  _79
REMARK   30  A    between atoms: _79  and  _80
REMARK   31  A    between atoms: _79  and  _82
REMARK   32  A    between atoms: _82  and  _83
REMARK   33  A    between atoms: _88  and  _89
REMARK   34  A    between atoms: _91  and  _93
REMARK   35  A    between atoms: _93  and  _94
REMARK   36  A    between atoms: _93  and  _96
REMARK   37  A    between atoms: _96  and  _97
REMARK   38  A    between atoms: _99  and  _101
REMARK   39  A    between atoms: _101  and  _102
REMARK   40  A    between atoms: _101  and  _104
REMARK   41  A    between atoms: _104  and  _105
REMARK   42  A    between atoms: _110  and  _112
REMARK   43  A    between atoms: _112  and  _113
REMARK   44  A    between atoms: _112  and  _115
REMARK   45  A    between atoms: _115  and  _116
REMARK   46  A    between atoms: _118  and  _120
REMARK   47  A    between atoms: _120  and  _121
REMARK   48  A    between atoms: _120  and  _123
REMARK   49  A    between atoms: _123  and  _124
REMARK   50  A    between atoms: _124  and  _125
REMARK   51  A    between atoms: _125  and  _126
REMARK   52  A    between atoms: _126  and  _127
REMARK   53  A    between atoms: _131  and  _133
REMARK   54  A    between atoms: _133  and  _134
REMARK   55  A    between atoms: _133  and  _136
REMARK   56  A    between atoms: _136  and  _137
REMARK   57  A    between atoms: _137  and  _138
REMARK   58  A    between atoms: _138  and  _139
REMARK   59  A    between atoms: _139  and  _140
REMARK   60  A    between atoms: _144  and  _146
REMARK   61  A    between atoms: _146  and  _147
REMARK   62  A    between atoms: _146  and  _149
REMARK   63  A    between atoms: _149  and  _150
REMARK   64  A    between atoms: _153  and  _155
REMARK   65  A    between atoms: _155  and  _156
REMARK   66  A    between atoms: _155  and  _158
REMARK   67  A    between atoms: _158  and  _159
REMARK   68  A    between atoms: _164  and  _165
REMARK   69  A    between atoms: _167  and  _169
REMARK   70  A    between atoms: _169  and  _170
REMARK   71  A    between atoms: _169  and  _172
REMARK   72  A    between atoms: _172  and  _173
REMARK   73  A    between atoms: _178  and  _180
REMARK   74  A    between atoms: _180  and  _181
REMARK   75  A    between atoms: _180  and  _183
REMARK   76  A    between atoms: _183  and  _184
REMARK   77  A    between atoms: _184  and  _185
REMARK   78  A    between atoms: _190  and  _192
REMARK   79  A    between atoms: _192  and  _193
REMARK   80  A    between atoms: _192  and  _195
REMARK   81  A    between atoms: _195  and  _196
REMARK   82  A    between atoms: _206  and  _208
REMARK   83  A    between atoms: _208  and  _209
REMARK   84  A    between atoms: _208  and  _211
REMARK   85  A    between atoms: _211  and  _212
REMARK   86  A    between atoms: _212  and  _213
REMARK   87  A    between atoms: _213  and  _215
REMARK   88  A    between atoms: _215  and  MG_372
REMARK   89  A    between atoms: _216  and  _218
REMARK   90  A    between atoms: _218  and  _219
REMARK   91  A    between atoms: _218  and  _221
REMARK   92  A    between atoms: _221  and  _222
REMARK   93  A    between atoms: _222  and  _223
REMARK   94  A    between atoms: _226  and  _228
REMARK   95  A    between atoms: _228  and  _229
REMARK   96  A    between atoms: _228  and  _231
REMARK   97  A    between atoms: _231  and  _232
REMARK   98  A    between atoms: _232  and  _233
REMARK   99  A    between atoms: _238  and  _240
REMARK  100  A    between atoms: _240  and  _241
REMARK  101  A    between atoms: _240  and  _243
REMARK  102  A    between atoms: _243  and  _244
REMARK  103  A    between atoms: _244  and  _245
REMARK  104  A    between atoms: _245  and  _246
REMARK  105  A    between atoms: _246  and  MG_372
REMARK  106  A    between atoms: _248  and  _250
REMARK  107  A    between atoms: _250  and  _251
REMARK  108  A    between atoms: _250  and  _253
REMARK  109  A    between atoms: _253  and  _254
REMARK  110  A    between atoms: _259  and  _261
REMARK  111  A    between atoms: _261  and  _262
REMARK  112  A    between atoms: _261  and  _264
REMARK  113  A    between atoms: _264  and  _265
REMARK  114  A    between atoms: _265  and  _266
REMARK  115  A    between atoms: _268  and  _270
REMARK  116  A    between atoms: _270  and  _271
REMARK  117  A    between atoms: _270  and  _273
REMARK  118  A    between atoms: _273  and  _274
REMARK  119  A    between atoms: _277  and  _279
REMARK  120  A    between atoms: _279  and  _280
REMARK  121  A    between atoms: _279  and  _282
REMARK  122  A    between atoms: _282  and  _283
REMARK  123  A    between atoms: _283  and  _284
REMARK  124  A    between atoms: _284  and  _285
REMARK  125  A    between atoms: _285  and  _286
REMARK  126  A    between atoms: _290  and  _292
REMARK  127  A    between atoms: _292  and  _293
REMARK  128  A    between atoms: _292  and  _295
REMARK  129  A    between atoms: _295  and  _296
REMARK  130  A    between atoms: _298  and  _300
REMARK  131  A    between atoms: _300  and  _301
REMARK  132  A    between atoms: _300  and  _303
REMARK  133  A    between atoms: _303  and  _304
REMARK  134  A    between atoms: _309  and  _311
REMARK  135  A    between atoms: _311  and  _312
REMARK  136  A    between atoms: _311  and  _314
REMARK  137  A    between atoms: _314  and  _315
REMARK  138  A    between atoms: _318  and  _320
REMARK  139  A    between atoms: _320  and  _321
REMARK  140  A    between atoms: _320  and  _323
REMARK  141  A    between atoms: _323  and  _324
REMARK  142  A    between atoms: _324  and  _325
REMARK  143  A    between atoms: _328  and  _330
REMARK  144  A    between atoms: _330  and  _331
REMARK  145  A    between atoms: _330  and  _333
REMARK  146  A    between atoms: _333  and  _334
REMARK  147  A    between atoms: _334  and  _335
REMARK  148  A    between atoms: _335  and  _336
REMARK  149  A    between atoms: _345  and  _347
REMARK  150  A    between atoms: _347  and  _348
REMARK  151  A    between atoms: _347  and  _350
REMARK  152  A    between atoms: _350  and  _351
REMARK  153  A    between atoms: _354  and  _356
REMARK  154  A    between atoms: _356  and  _357
REMARK  155  A    between atoms: _356  and  _359
REMARK  156  A    between atoms: _359  and  _360
REMARK  157  A    between atoms: _363  and  _365
REMARK  158  A    between atoms: _365  and  _366
REMARK  159  A    between atoms: _365  and  _368
REMARK  160  A    between atoms: _368  and  _369
REMARK                            x       y       z     vdW  Elec       q    Type
REMARK                         _______ _______ _______ _____ _____    ______ ____
ROOT
ATOM      1  O   HOH     1     -22.470  28.252 -26.694  0.00  0.00    +0.000 OA
ENDROOT
TORSDOF 0
REMARK  Name = ../refined-set-2016/4m6u/4m6u_pocket.pdb
REMARK  160 active torsions:
REMARK  status: ('A' for Active; 'I' for Inactive)
REMARK    1  A    between atoms: _1  and  _3
REMARK    2  A    between atoms: _3  and  _4
REMARK    3  A    between atoms: _3  and  _6
REMARK    4  A    between atoms: _9  and  _11
REMARK    5  A    between atoms: _11  and  _12
REMARK    6  A    between atoms: _11  and  _14
REMARK    7  A    between atoms: _14  and  _15
REMARK    8  A    between atoms: _20  and  _22
REMARK    9  A    between atoms: _22  and  _23
REMARK   10  A    between atoms: _22  and  _25
REMARK   11  A    between atoms: _25  and  _26
REMARK   12  A    between atoms: _29  and  _31
REMARK   13  A    between atoms: _31  and  _32
REMARK   14  A    between atoms: _35  and  _37
REMARK   15  A    between atoms: _37  and  _38
REMARK   16  A    between atoms: _37  and  _40
REMARK   17  A    between atoms: _43  and  _45
REMARK   18  A    between atoms: _45  and  _46
REMARK   19  A    between atoms: _45  and  _48
REMARK   20  A    between atoms: _51  and  _53
REMARK   21  A    between atoms: _53  and  _54
REMARK   22  A    between atoms: _53  and  _56
REMARK   23  A    between atoms: _56  and  _57
REMARK   24  A    between atoms: _63  and  _65
REMARK   25  A    between atoms: _65  and  _66
REMARK   26  A    between atoms: _65  and  _68
REMARK   27  A    between atoms: _68  and  _69
REMARK   28  A    between atoms: _74  and  _75
REMARK   29  A    between atoms: _77  and  _79
REMARK   30  A    between atoms: _79  and  _80
REMARK   31  A    between atoms: _79  and  _82
REMARK   32  A    between atoms: _82  and  _83
REMARK   33  A    between atoms: _88  and  _89
REMARK   34  A    between atoms: _91  and  _93
REMARK   35  A    between atoms: _93  and  _94
REMARK   36  A    between atoms: _93  and  _96
REMARK   37  A    between atoms: _96  and  _97
REMARK   38  A    between atoms: _99  and  _101
REMARK   39  A    between atoms: _101  and  _102
REMARK   40  A    between atoms: _101  and  _104
REMARK   41  A    between atoms: _104  and  _105
REMARK   42  A    between atoms: _110  and  _112
REMARK   43  A    between atoms: _112  and  _113
REMARK   44  A    between atoms: _112  and  _115
REMARK   45  A    between atoms: _115  and  _116
REMARK   46  A    between atoms: _118  and  _120
REMARK   47  A    between atoms: _120  and  _121
REMARK   48  A    between atoms: _120  and  _123
REMARK   49  A    between atoms: _123  and  _124
REMARK   50  A    between atoms: _124  and  _125
REMARK   51  A    between atoms: _125  and  _126
REMARK   52  A    between atoms: _126  and  _127
REMARK   53  A    between atoms: _131  and  _133
REMARK   54  A    between atoms: _133  and  _134
REMARK   55  A    between atoms: _133  and  _136
REMARK   56  A    between atoms: _136  and  _137
REMARK   57  A    between atoms: _137  and  _138
REMARK   58  A    between atoms: _138  and  _139
REMARK   59  A    between atoms: _139  and  _140
REMARK   60  A    between atoms: _144  and  _146
REMARK   61  A    between atoms: _146  and  _147
REMARK   62  A    between atoms: _146  and  _149
REMARK   63  A    between atoms: _149  and  _150
REMARK   64  A    between atoms: _153  and  _155
REMARK   65  A    between atoms: _155  and  _156
REMARK   66  A    between atoms: _155  and  _158
REMARK   67  A    between atoms: _158  and  _159
REMARK   68  A    between atoms: _164  and  _165
REMARK   69  A    between atoms: _167  and  _169
REMARK   70  A    between atoms: _169  and  _170
REMARK   71  A    between atoms: _169  and  _172
REMARK   72  A    between atoms: _172  and  _173
REMARK   73  A    between atoms: _178  and  _180
REMARK   74  A    between atoms: _180  and  _181
REMARK   75  A    between atoms: _180  and  _183
REMARK   76  A    between atoms: _183  and  _184
REMARK   77  A    between atoms: _184  and  _185
REMARK   78  A    between atoms: _190  and  _192
REMARK   79  A    between atoms: _192  and  _193
REMARK   80  A    between atoms: _192  and  _195
REMARK   81  A    between atoms: _195  and  _196
REMARK   82  A    between atoms: _206  and  _208
REMARK   83  A    between atoms: _208  and  _209
REMARK   84  A    between atoms: _208  and  _211
REMARK   85  A    between atoms: _211  and  _212
REMARK   86  A    between atoms: _212  and  _213
REMARK   87  A    between atoms: _213  and  _215
REMARK   88  A    between atoms: _215  and  MG_372
REMARK   89  A    between atoms: _216  and  _218
REMARK   90  A    between atoms: _218  and  _219
REMARK   91  A    between atoms: _218  and  _221
REMARK   92  A    between atoms: _221  and  _222
REMARK   93  A    between atoms: _222  and  _223
REMARK   94  A    between atoms: _226  and  _228
REMARK   95  A    between atoms: _228  and  _229
REMARK   96  A    between atoms: _228  and  _231
REMARK   97  A    between atoms: _231  and  _232
REMARK   98  A    between atoms: _232  and  _233
REMARK   99  A    between atoms: _238  and  _240
REMARK  100  A    between atoms: _240  and  _241
REMARK  101  A    between atoms: _240  and  _243
REMARK  102  A    between atoms: _243  and  _244
REMARK  103  A    between atoms: _244  and  _245
REMARK  104  A    between atoms: _245  and  _246
REMARK  105  A    between atoms: _246  and  MG_372
REMARK  106  A    between atoms: _248  and  _250
REMARK  107  A    between atoms: _250  and  _251
REMARK  108  A    between atoms: _250  and  _253
REMARK  109  A    between atoms: _253  and  _254
REMARK  110  A    between atoms: _259  and  _261
REMARK  111  A    between atoms: _261  and  _262
REMARK  112  A    between atoms: _261  and  _264
REMARK  113  A    between atoms: _264  and  _265
REMARK  114  A    between atoms: _265  and  _266
REMARK  115  A    between atoms: _268  and  _270
REMARK  116  A    between atoms: _270  and  _271
REMARK  117  A    between atoms: _270  and  _273
REMARK  118  A    between atoms: _273  and  _274
REMARK  119  A    between atoms: _277  and  _279
REMARK  120  A    between atoms: _279  and  _280
REMARK  121  A    between atoms: _279  and  _282
REMARK  122  A    between atoms: _282  and  _283
REMARK  123  A    between atoms: _283  and  _284
REMARK  124  A    between atoms: _284  and  _285
REMARK  125  A    between atoms: _285  and  _286
REMARK  126  A    between atoms: _290  and  _292
REMARK  127  A    between atoms: _292  and  _293
REMARK  128  A    between atoms: _292  and  _295
REMARK  129  A    between atoms: _295  and  _296
REMARK  130  A    between atoms: _298  and  _300
REMARK  131  A    between atoms: _300  and  _301
REMARK  132  A    between atoms: _300  and  _303
REMARK  133  A    between atoms: _303  and  _304
REMARK  134  A    between atoms: _309  and  _311
REMARK  135  A    between atoms: _311  and  _312
REMARK  136  A    between atoms: _311  and  _314
REMARK  137  A    between atoms: _314  and  _315
REMARK  138  A    between atoms: _318  and  _320
REMARK  139  A    between atoms: _320  and  _321
REMARK  140  A    between atoms: _320  and  _323
REMARK  141  A    between atoms: _323  and  _324
REMARK  142  A    between atoms: _324  and  _325
REMARK  143  A    between atoms: _328  and  _330
REMARK  144  A    between atoms: _330  and  _331
REMARK  145  A    between atoms: _330  and  _333
REMARK  146  A    between atoms: _333  and  _334
REMARK  147  A    between atoms: _334  and  _335
REMARK  148  A    between atoms: _335  and  _336
REMARK  149  A    between atoms: _345  and  _347
REMARK  150  A    between atoms: _347  and  _348
REMARK  151  A    between atoms: _347  and  _350
REMARK  152  A    between atoms: _350  and  _351
REMARK  153  A    between atoms: _354  and  _356
REMARK  154  A    between atoms: _356  and  _357
REMARK  155  A    between atoms: _356  and  _359
REMARK  156  A    between atoms: _359  and  _360
REMARK  157  A    between atoms: _363  and  _365
REMARK  158  A    between atoms: _365  and  _366
REMARK  159  A    between atoms: _365  and  _368
REMARK  160  A    between atoms: _368  and  _369
REMARK                            x       y       z     vdW  Elec       q    Type
REMARK                         _______ _______ _______ _____ _____    ______ ____
ROOT
ATOM      1  O   HOH     1     -18.097  18.727 -24.998  0.00  0.00    +0.000 OA
ENDROOT
TORSDOF 0
