REMARK  Name = ../refined-set-2016/4er1/4er1_pocket.pdb
REMARK  279 active torsions:
REMARK  status: ('A' for Active; 'I' for Inactive)
REMARK    1  A    between atoms: _1  and  _3
REMARK    2  A    between atoms: _3  and  _4
REMARK    3  A    between atoms: _3  and  _6
REMARK    4  A    between atoms: _6  and  _7
REMARK    5  A    between atoms: _10  and  _12
REMARK    6  A    between atoms: _12  and  _13
REMARK    7  A    between atoms: _12  and  _15
REMARK    8  A    between atoms: _15  and  _16
REMARK    9  A    between atoms: _19  and  _21
REMARK   10  A    between atoms: _21  and  _22
REMARK   11  A    between atoms: _21  and  _24
REMARK   12  A    between atoms: _24  and  _25
REMARK   13  A    between atoms: _28  and  _30
REMARK   14  A    between atoms: _30  and  _31
REMARK   15  A    between atoms: _30  and  _33
REMARK   16  A    between atoms: _33  and  _34
REMARK   17  A    between atoms: _37  and  _39
REMARK   18  A    between atoms: _39  and  _40
REMARK   19  A    between atoms: _39  and  _42
REMARK   20  A    between atoms: _42  and  _43
REMARK   21  A    between atoms: _46  and  _48
REMARK   22  A    between atoms: _48  and  _49
REMARK   23  A    between atoms: _52  and  _54
REMARK   24  A    between atoms: _54  and  _55
REMARK   25  A    between atoms: _54  and  _57
REMARK   26  A    between atoms: _57  and  _58
REMARK   27  A    between atoms: _63  and  _64
REMARK   28  A    between atoms: _66  and  _68
REMARK   29  A    between atoms: _68  and  _69
REMARK   30  A    between atoms: _68  and  _71
REMARK   31  A    between atoms: _71  and  _72
REMARK   32  A    between atoms: _75  and  _77
REMARK   33  A    between atoms: _77  and  _78
REMARK   34  A    between atoms: _77  and  _80
REMARK   35  A    between atoms: _80  and  _81
REMARK   36  A    between atoms: _87  and  _89
REMARK   37  A    between atoms: _89  and  _90
REMARK   38  A    between atoms: _89  and  _92
REMARK   39  A    between atoms: _92  and  _93
REMARK   40  A    between atoms: _96  and  _98
REMARK   41  A    between atoms: _98  and  _99
REMARK   42  A    between atoms: _98  and  _101
REMARK   43  A    between atoms: _101  and  _102
REMARK   44  A    between atoms: _105  and  _107
REMARK   45  A    between atoms: _107  and  _108
REMARK   46  A    between atoms: _110  and  _112
REMARK   47  A    between atoms: _112  and  _113
REMARK   48  A    between atoms: _112  and  _115
REMARK   49  A    between atoms: _115  and  _116
REMARK   50  A    between atoms: _118  and  _120
REMARK   51  A    between atoms: _120  and  _121
REMARK   52  A    between atoms: _120  and  _123
REMARK   53  A    between atoms: _123  and  _124
REMARK   54  A    between atoms: _126  and  _128
REMARK   55  A    between atoms: _128  and  _129
REMARK   56  A    between atoms: _128  and  _131
REMARK   57  A    between atoms: _131  and  _132
REMARK   58  A    between atoms: _135  and  _137
REMARK   59  A    between atoms: _137  and  _138
REMARK   60  A    between atoms: _137  and  _140
REMARK   61  A    between atoms: _140  and  _141
REMARK   62  A    between atoms: _151  and  _153
REMARK   63  A    between atoms: _153  and  _154
REMARK   64  A    between atoms: _153  and  _156
REMARK   65  A    between atoms: _156  and  _157
REMARK   66  A    between atoms: _159  and  _161
REMARK   67  A    between atoms: _161  and  _162
REMARK   68  A    between atoms: _161  and  _164
REMARK   69  A    between atoms: _164  and  _165
REMARK   70  A    between atoms: _168  and  _170
REMARK   71  A    between atoms: _170  and  _171
REMARK   72  A    between atoms: _170  and  _173
REMARK   73  A    between atoms: _173  and  _174
REMARK   74  A    between atoms: _176  and  _178
REMARK   75  A    between atoms: _178  and  _179
REMARK   76  A    between atoms: _178  and  _181
REMARK   77  A    between atoms: _181  and  _182
REMARK   78  A    between atoms: _187  and  _188
REMARK   79  A    between atoms: _190  and  _192
REMARK   80  A    between atoms: _192  and  _193
REMARK   81  A    between atoms: _195  and  _197
REMARK   82  A    between atoms: _197  and  _198
REMARK   83  A    between atoms: _197  and  _200
REMARK   84  A    between atoms: _200  and  _201
REMARK   85  A    between atoms: _204  and  _206
REMARK   86  A    between atoms: _206  and  _207
REMARK   87  A    between atoms: _209  and  _211
REMARK   88  A    between atoms: _211  and  _212
REMARK   89  A    between atoms: _211  and  _214
REMARK   90  A    between atoms: _214  and  _215
REMARK   91  A    between atoms: _217  and  _219
REMARK   92  A    between atoms: _219  and  _220
REMARK   93  A    between atoms: _219  and  _222
REMARK   94  A    between atoms: _222  and  _223
REMARK   95  A    between atoms: _225  and  _227
REMARK   96  A    between atoms: _227  and  _228
REMARK   97  A    between atoms: _227  and  _230
REMARK   98  A    between atoms: _230  and  _231
REMARK   99  A    between atoms: _233  and  _235
REMARK  100  A    between atoms: _235  and  _236
REMARK  101  A    between atoms: _235  and  _238
REMARK  102  A    between atoms: _238  and  _239
REMARK  103  A    between atoms: _241  and  _243
REMARK  104  A    between atoms: _243  and  _244
REMARK  105  A    between atoms: _243  and  _246
REMARK  106  A    between atoms: _246  and  _247
REMARK  107  A    between atoms: _249  and  _251
REMARK  108  A    between atoms: _251  and  _252
REMARK  109  A    between atoms: _251  and  _254
REMARK  110  A    between atoms: _254  and  _255
REMARK  111  A    between atoms: _261  and  _263
REMARK  112  A    between atoms: _263  and  _264
REMARK  113  A    between atoms: _263  and  _266
REMARK  114  A    between atoms: _266  and  _267
REMARK  115  A    between atoms: _270  and  _272
REMARK  116  A    between atoms: _272  and  _273
REMARK  117  A    between atoms: _272  and  _275
REMARK  118  A    between atoms: _275  and  _276
REMARK  119  A    between atoms: _276  and  _277
REMARK  120  A    between atoms: _280  and  _282
REMARK  121  A    between atoms: _282  and  _283
REMARK  122  A    between atoms: _282  and  _285
REMARK  123  A    between atoms: _285  and  _286
REMARK  124  A    between atoms: _289  and  _291
REMARK  125  A    between atoms: _291  and  _292
REMARK  126  A    between atoms: _291  and  _294
REMARK  127  A    between atoms: _294  and  _295
REMARK  128  A    between atoms: _297  and  _299
REMARK  129  A    between atoms: _299  and  _300
REMARK  130  A    between atoms: _299  and  _302
REMARK  131  A    between atoms: _302  and  _303
REMARK  132  A    between atoms: _306  and  _308
REMARK  133  A    between atoms: _308  and  _309
REMARK  134  A    between atoms: _308  and  _311
REMARK  135  A    between atoms: _311  and  _312
REMARK  136  A    between atoms: _315  and  _317
REMARK  137  A    between atoms: _317  and  _318
REMARK  138  A    between atoms: _320  and  _322
REMARK  139  A    between atoms: _322  and  _323
REMARK  140  A    between atoms: _322  and  _325
REMARK  141  A    between atoms: _325  and  _326
REMARK  142  A    between atoms: _329  and  _331
REMARK  143  A    between atoms: _331  and  _332
REMARK  144  A    between atoms: _331  and  _334
REMARK  145  A    between atoms: _334  and  _335
REMARK  146  A    between atoms: _338  and  _340
REMARK  147  A    between atoms: _340  and  _341
REMARK  148  A    between atoms: _340  and  _343
REMARK  149  A    between atoms: _343  and  _344
REMARK  150  A    between atoms: _347  and  _349
REMARK  151  A    between atoms: _349  and  _350
REMARK  152  A    between atoms: _353  and  _355
REMARK  153  A    between atoms: _355  and  _356
REMARK  154  A    between atoms: _355  and  _358
REMARK  155  A    between atoms: _358  and  _359
REMARK  156  A    between atoms: _362  and  _364
REMARK  157  A    between atoms: _364  and  _365
REMARK  158  A    between atoms: _364  and  _367
REMARK  159  A    between atoms: _367  and  _368
REMARK  160  A    between atoms: _371  and  _373
REMARK  161  A    between atoms: _373  and  _374
REMARK  162  A    between atoms: _373  and  _376
REMARK  163  A    between atoms: _376  and  _377
REMARK  164  A    between atoms: _382  and  _384
REMARK  165  A    between atoms: _384  and  _385
REMARK  166  A    between atoms: _384  and  _387
REMARK  167  A    between atoms: _387  and  _388
REMARK  168  A    between atoms: _391  and  _393
REMARK  169  A    between atoms: _393  and  _394
REMARK  170  A    between atoms: _393  and  _396
REMARK  171  A    between atoms: _396  and  _397
REMARK  172  A    between atoms: _397  and  _398
REMARK  173  A    between atoms: _403  and  _405
REMARK  174  A    between atoms: _405  and  _406
REMARK  175  A    between atoms: _408  and  _410
REMARK  176  A    between atoms: _410  and  _411
REMARK  177  A    between atoms: _410  and  _413
REMARK  178  A    between atoms: _413  and  _414
REMARK  179  A    between atoms: _420  and  _422
REMARK  180  A    between atoms: _422  and  _423
REMARK  181  A    between atoms: _425  and  _427
REMARK  182  A    between atoms: _427  and  _428
REMARK  183  A    between atoms: _427  and  _430
REMARK  184  A    between atoms: _430  and  _431
REMARK  185  A    between atoms: _434  and  _436
REMARK  186  A    between atoms: _436  and  _437
REMARK  187  A    between atoms: _440  and  _442
REMARK  188  A    between atoms: _442  and  _443
REMARK  189  A    between atoms: _442  and  _445
REMARK  190  A    between atoms: _445  and  _446
REMARK  191  A    between atoms: _449  and  _451
REMARK  192  A    between atoms: _451  and  _452
REMARK  193  A    between atoms: _451  and  _454
REMARK  194  A    between atoms: _454  and  _455
REMARK  195  A    between atoms: _458  and  _460
REMARK  196  A    between atoms: _460  and  _461
REMARK  197  A    between atoms: _463  and  _465
REMARK  198  A    between atoms: _465  and  _466
REMARK  199  A    between atoms: _465  and  _468
REMARK  200  A    between atoms: _468  and  _469
REMARK  201  A    between atoms: _472  and  _474
REMARK  202  A    between atoms: _474  and  _475
REMARK  203  A    between atoms: _474  and  _477
REMARK  204  A    between atoms: _477  and  _478
REMARK  205  A    between atoms: _481  and  _483
REMARK  206  A    between atoms: _483  and  _484
REMARK  207  A    between atoms: _483  and  _486
REMARK  208  A    between atoms: _486  and  _487
REMARK  209  A    between atoms: _490  and  _492
REMARK  210  A    between atoms: _492  and  _493
REMARK  211  A    between atoms: _492  and  _495
REMARK  212  A    between atoms: _495  and  _496
REMARK  213  A    between atoms: _499  and  _501
REMARK  214  A    between atoms: _501  and  _502
REMARK  215  A    between atoms: _501  and  _504
REMARK  216  A    between atoms: _504  and  _505
REMARK  217  A    between atoms: _510  and  _511
REMARK  218  A    between atoms: _513  and  _515
REMARK  219  A    between atoms: _515  and  _516
REMARK  220  A    between atoms: _515  and  _518
REMARK  221  A    between atoms: _521  and  _523
REMARK  222  A    between atoms: _523  and  _524
REMARK  223  A    between atoms: _526  and  _528
REMARK  224  A    between atoms: _528  and  _529
REMARK  225  A    between atoms: _528  and  _531
REMARK  226  A    between atoms: _531  and  _532
REMARK  227  A    between atoms: _538  and  _540
REMARK  228  A    between atoms: _540  and  _541
REMARK  229  A    between atoms: _543  and  _545
REMARK  230  A    between atoms: _545  and  _546
REMARK  231  A    between atoms: _545  and  _548
REMARK  232  A    between atoms: _548  and  _549
REMARK  233  A    between atoms: _555  and  _557
REMARK  234  A    between atoms: _557  and  _558
REMARK  235  A    between atoms: _560  and  _562
REMARK  236  A    between atoms: _562  and  _563
REMARK  237  A    between atoms: _565  and  _567
REMARK  238  A    between atoms: _567  and  _568
REMARK  239  A    between atoms: _567  and  _570
REMARK  240  A    between atoms: _570  and  _571
REMARK  241  A    between atoms: _571  and  _572
REMARK  242  A    between atoms: _577  and  _579
REMARK  243  A    between atoms: _579  and  _580
REMARK  244  A    between atoms: _579  and  _582
REMARK  245  A    between atoms: _582  and  _583
REMARK  246  A    between atoms: _585  and  _587
REMARK  247  A    between atoms: _587  and  _588
REMARK  248  A    between atoms: _587  and  _590
REMARK  249  A    between atoms: _590  and  _591
REMARK  250  A    between atoms: _593  and  _595
REMARK  251  A    between atoms: _595  and  _596
REMARK  252  A    between atoms: _598  and  _600
REMARK  253  A    between atoms: _600  and  _601
REMARK  254  A    between atoms: _600  and  _603
REMARK  255  A    between atoms: _603  and  _604
REMARK  256  A    between atoms: _607  and  _609
REMARK  257  A    between atoms: _609  and  _610
REMARK  258  A    between atoms: _612  and  _614
REMARK  259  A    between atoms: _614  and  _615
REMARK  260  A    between atoms: _614  and  _617
REMARK  261  A    between atoms: _617  and  _618
REMARK  262  A    between atoms: _621  and  _623
REMARK  263  A    between atoms: _623  and  _624
REMARK  264  A    between atoms: _623  and  _626
REMARK  265  A    between atoms: _626  and  _627
REMARK  266  A    between atoms: _632  and  _634
REMARK  267  A    between atoms: _634  and  _635
REMARK  268  A    between atoms: _634  and  _637
REMARK  269  A    between atoms: _637  and  _638
REMARK  270  A    between atoms: _641  and  _643
REMARK  271  A    between atoms: _643  and  _644
REMARK  272  A    between atoms: _643  and  _646
REMARK  273  A    between atoms: _646  and  _647
REMARK  274  A    between atoms: _653  and  _655
REMARK  275  A    between atoms: _655  and  _656
REMARK  276  A    between atoms: _658  and  _660
REMARK  277  A    between atoms: _660  and  _661
REMARK  278  A    between atoms: _660  and  _663
REMARK  279  A    between atoms: _663  and  _664
REMARK                            x       y       z     vdW  Elec       q    Type
REMARK                         _______ _______ _______ _____ _____    ______ ____
ROOT
ATOM      1  C   ILE A   1      13.919  21.717  21.377  0.00  0.00    +0.238 C 
ATOM      2  O   ILE A   1      14.448  21.856  22.468  0.00  0.00    -0.274 OA
ATOM      3  N   ASP A   2      13.095  20.727  21.064  0.00  0.00    -0.298 N 
ATOM      4  H   ASP A   2      12.759  20.625  20.085  0.00  0.00    +0.150 HD
ENDROOT
BRANCH   1   5
ATOM      5  CA  ILE A   1      14.262  22.752  20.310  0.00  0.00    +0.145 C 
BRANCH   5   6
ATOM      6  N   ILE A   1      13.899  22.301  18.937  0.00  0.00    -0.238 NA
ATOM      7  H   ILE A   1      13.076  22.718  18.457  0.00  0.00    +0.142 HD
ENDBRANCH   5   6
BRANCH   5   8
ATOM      8  CB  ILE A   1      13.679  24.063  20.738  0.00  0.00    +0.025 C 
ATOM      9  CG2 ILE A   1      14.061  25.170  19.728  0.00  0.00    +0.002 C 
BRANCH   8  10
ATOM     10  CG1 ILE A   1      12.148  23.985  20.849  0.00  0.00    +0.002 C 
ATOM     11  CD1 ILE A   1      11.356  25.232  21.059  0.00  0.00    +0.000 C 
ENDBRANCH   8  10
ENDBRANCH   5   8
ENDBRANCH   1   5
BRANCH   3  12
ATOM     12  CA  ASP A   2      12.639  19.742  22.122  0.00  0.00    +0.148 C 
BRANCH  12  13
ATOM     13  C   ASP A   2      12.219  18.466  21.391  0.00  0.00    +0.227 C 
ATOM     14  O   ASP A   2      12.303  18.444  20.152  0.00  0.00    -0.286 OA
ENDBRANCH  12  13
BRANCH  12  15
ATOM     15  CB  ASP A   2      11.477  20.300  22.915  0.00  0.00    +0.142 C 
BRANCH  15  16
ATOM     16  CG  ASP A   2      10.272  20.749  22.130  0.00  0.00    +0.367 C 
ATOM     17  OD2 ASP A   2       9.568  21.638  22.660  0.00  0.00    -0.246 OA
ATOM     18  OD1 ASP A   2      10.008  20.226  21.028  0.00  0.00    -0.246 OA
ENDBRANCH  15  16
ENDBRANCH  12  15
ENDBRANCH   3  12
TORSDOF 8
REMARK  Name = ../refined-set-2016/4er1/4er1_pocket.pdb
REMARK  279 active torsions:
REMARK  status: ('A' for Active; 'I' for Inactive)
REMARK    1  A    between atoms: _1  and  _3
REMARK    2  A    between atoms: _3  and  _4
REMARK    3  A    between atoms: _3  and  _6
REMARK    4  A    between atoms: _6  and  _7
REMARK    5  A    between atoms: _10  and  _12
REMARK    6  A    between atoms: _12  and  _13
REMARK    7  A    between atoms: _12  and  _15
REMARK    8  A    between atoms: _15  and  _16
REMARK    9  A    between atoms: _19  and  _21
REMARK   10  A    between atoms: _21  and  _22
REMARK   11  A    between atoms: _21  and  _24
REMARK   12  A    between atoms: _24  and  _25
REMARK   13  A    between atoms: _28  and  _30
REMARK   14  A    between atoms: _30  and  _31
REMARK   15  A    between atoms: _30  and  _33
REMARK   16  A    between atoms: _33  and  _34
REMARK   17  A    between atoms: _37  and  _39
REMARK   18  A    between atoms: _39  and  _40
REMARK   19  A    between atoms: _39  and  _42
REMARK   20  A    between atoms: _42  and  _43
REMARK   21  A    between atoms: _46  and  _48
REMARK   22  A    between atoms: _48  and  _49
REMARK   23  A    between atoms: _52  and  _54
REMARK   24  A    between atoms: _54  and  _55
REMARK   25  A    between atoms: _54  and  _57
REMARK   26  A    between atoms: _57  and  _58
REMARK   27  A    between atoms: _63  and  _64
REMARK   28  A    between atoms: _66  and  _68
REMARK   29  A    between atoms: _68  and  _69
REMARK   30  A    between atoms: _68  and  _71
REMARK   31  A    between atoms: _71  and  _72
REMARK   32  A    between atoms: _75  and  _77
REMARK   33  A    between atoms: _77  and  _78
REMARK   34  A    between atoms: _77  and  _80
REMARK   35  A    between atoms: _80  and  _81
REMARK   36  A    between atoms: _87  and  _89
REMARK   37  A    between atoms: _89  and  _90
REMARK   38  A    between atoms: _89  and  _92
REMARK   39  A    between atoms: _92  and  _93
REMARK   40  A    between atoms: _96  and  _98
REMARK   41  A    between atoms: _98  and  _99
REMARK   42  A    between atoms: _98  and  _101
REMARK   43  A    between atoms: _101  and  _102
REMARK   44  A    between atoms: _105  and  _107
REMARK   45  A    between atoms: _107  and  _108
REMARK   46  A    between atoms: _110  and  _112
REMARK   47  A    between atoms: _112  and  _113
REMARK   48  A    between atoms: _112  and  _115
REMARK   49  A    between atoms: _115  and  _116
REMARK   50  A    between atoms: _118  and  _120
REMARK   51  A    between atoms: _120  and  _121
REMARK   52  A    between atoms: _120  and  _123
REMARK   53  A    between atoms: _123  and  _124
REMARK   54  A    between atoms: _126  and  _128
REMARK   55  A    between atoms: _128  and  _129
REMARK   56  A    between atoms: _128  and  _131
REMARK   57  A    between atoms: _131  and  _132
REMARK   58  A    between atoms: _135  and  _137
REMARK   59  A    between atoms: _137  and  _138
REMARK   60  A    between atoms: _137  and  _140
REMARK   61  A    between atoms: _140  and  _141
REMARK   62  A    between atoms: _151  and  _153
REMARK   63  A    between atoms: _153  and  _154
REMARK   64  A    between atoms: _153  and  _156
REMARK   65  A    between atoms: _156  and  _157
REMARK   66  A    between atoms: _159  and  _161
REMARK   67  A    between atoms: _161  and  _162
REMARK   68  A    between atoms: _161  and  _164
REMARK   69  A    between atoms: _164  and  _165
REMARK   70  A    between atoms: _168  and  _170
REMARK   71  A    between atoms: _170  and  _171
REMARK   72  A    between atoms: _170  and  _173
REMARK   73  A    between atoms: _173  and  _174
REMARK   74  A    between atoms: _176  and  _178
REMARK   75  A    between atoms: _178  and  _179
REMARK   76  A    between atoms: _178  and  _181
REMARK   77  A    between atoms: _181  and  _182
REMARK   78  A    between atoms: _187  and  _188
REMARK   79  A    between atoms: _190  and  _192
REMARK   80  A    between atoms: _192  and  _193
REMARK   81  A    between atoms: _195  and  _197
REMARK   82  A    between atoms: _197  and  _198
REMARK   83  A    between atoms: _197  and  _200
REMARK   84  A    between atoms: _200  and  _201
REMARK   85  A    between atoms: _204  and  _206
REMARK   86  A    between atoms: _206  and  _207
REMARK   87  A    between atoms: _209  and  _211
REMARK   88  A    between atoms: _211  and  _212
REMARK   89  A    between atoms: _211  and  _214
REMARK   90  A    between atoms: _214  and  _215
REMARK   91  A    between atoms: _217  and  _219
REMARK   92  A    between atoms: _219  and  _220
REMARK   93  A    between atoms: _219  and  _222
REMARK   94  A    between atoms: _222  and  _223
REMARK   95  A    between atoms: _225  and  _227
REMARK   96  A    between atoms: _227  and  _228
REMARK   97  A    between atoms: _227  and  _230
REMARK   98  A    between atoms: _230  and  _231
REMARK   99  A    between atoms: _233  and  _235
REMARK  100  A    between atoms: _235  and  _236
REMARK  101  A    between atoms: _235  and  _238
REMARK  102  A    between atoms: _238  and  _239
REMARK  103  A    between atoms: _241  and  _243
REMARK  104  A    between atoms: _243  and  _244
REMARK  105  A    between atoms: _243  and  _246
REMARK  106  A    between atoms: _246  and  _247
REMARK  107  A    between atoms: _249  and  _251
REMARK  108  A    between atoms: _251  and  _252
REMARK  109  A    between atoms: _251  and  _254
REMARK  110  A    between atoms: _254  and  _255
REMARK  111  A    between atoms: _261  and  _263
REMARK  112  A    between atoms: _263  and  _264
REMARK  113  A    between atoms: _263  and  _266
REMARK  114  A    between atoms: _266  and  _267
REMARK  115  A    between atoms: _270  and  _272
REMARK  116  A    between atoms: _272  and  _273
REMARK  117  A    between atoms: _272  and  _275
REMARK  118  A    between atoms: _275  and  _276
REMARK  119  A    between atoms: _276  and  _277
REMARK  120  A    between atoms: _280  and  _282
REMARK  121  A    between atoms: _282  and  _283
REMARK  122  A    between atoms: _282  and  _285
REMARK  123  A    between atoms: _285  and  _286
REMARK  124  A    between atoms: _289  and  _291
REMARK  125  A    between atoms: _291  and  _292
REMARK  126  A    between atoms: _291  and  _294
REMARK  127  A    between atoms: _294  and  _295
REMARK  128  A    between atoms: _297  and  _299
REMARK  129  A    between atoms: _299  and  _300
REMARK  130  A    between atoms: _299  and  _302
REMARK  131  A    between atoms: _302  and  _303
REMARK  132  A    between atoms: _306  and  _308
REMARK  133  A    between atoms: _308  and  _309
REMARK  134  A    between atoms: _308  and  _311
REMARK  135  A    between atoms: _311  and  _312
REMARK  136  A    between atoms: _315  and  _317
REMARK  137  A    between atoms: _317  and  _318
REMARK  138  A    between atoms: _320  and  _322
REMARK  139  A    between atoms: _322  and  _323
REMARK  140  A    between atoms: _322  and  _325
REMARK  141  A    between atoms: _325  and  _326
REMARK  142  A    between atoms: _329  and  _331
REMARK  143  A    between atoms: _331  and  _332
REMARK  144  A    between atoms: _331  and  _334
REMARK  145  A    between atoms: _334  and  _335
REMARK  146  A    between atoms: _338  and  _340
REMARK  147  A    between atoms: _340  and  _341
REMARK  148  A    between atoms: _340  and  _343
REMARK  149  A    between atoms: _343  and  _344
REMARK  150  A    between atoms: _347  and  _349
REMARK  151  A    between atoms: _349  and  _350
REMARK  152  A    between atoms: _353  and  _355
REMARK  153  A    between atoms: _355  and  _356
REMARK  154  A    between atoms: _355  and  _358
REMARK  155  A    between atoms: _358  and  _359
REMARK  156  A    between atoms: _362  and  _364
REMARK  157  A    between atoms: _364  and  _365
REMARK  158  A    between atoms: _364  and  _367
REMARK  159  A    between atoms: _367  and  _368
REMARK  160  A    between atoms: _371  and  _373
REMARK  161  A    between atoms: _373  and  _374
REMARK  162  A    between atoms: _373  and  _376
REMARK  163  A    between atoms: _376  and  _377
REMARK  164  A    between atoms: _382  and  _384
REMARK  165  A    between atoms: _384  and  _385
REMARK  166  A    between atoms: _384  and  _387
REMARK  167  A    between atoms: _387  and  _388
REMARK  168  A    between atoms: _391  and  _393
REMARK  169  A    between atoms: _393  and  _394
REMARK  170  A    between atoms: _393  and  _396
REMARK  171  A    between atoms: _396  and  _397
REMARK  172  A    between atoms: _397  and  _398
REMARK  173  A    between atoms: _403  and  _405
REMARK  174  A    between atoms: _405  and  _406
REMARK  175  A    between atoms: _408  and  _410
REMARK  176  A    between atoms: _410  and  _411
REMARK  177  A    between atoms: _410  and  _413
REMARK  178  A    between atoms: _413  and  _414
REMARK  179  A    between atoms: _420  and  _422
REMARK  180  A    between atoms: _422  and  _423
REMARK  181  A    between atoms: _425  and  _427
REMARK  182  A    between atoms: _427  and  _428
REMARK  183  A    between atoms: _427  and  _430
REMARK  184  A    between atoms: _430  and  _431
REMARK  185  A    between atoms: _434  and  _436
REMARK  186  A    between atoms: _436  and  _437
REMARK  187  A    between atoms: _440  and  _442
REMARK  188  A    between atoms: _442  and  _443
REMARK  189  A    between atoms: _442  and  _445
REMARK  190  A    between atoms: _445  and  _446
REMARK  191  A    between atoms: _449  and  _451
REMARK  192  A    between atoms: _451  and  _452
REMARK  193  A    between atoms: _451  and  _454
REMARK  194  A    between atoms: _454  and  _455
REMARK  195  A    between atoms: _458  and  _460
REMARK  196  A    between atoms: _460  and  _461
REMARK  197  A    between atoms: _463  and  _465
REMARK  198  A    between atoms: _465  and  _466
REMARK  199  A    between atoms: _465  and  _468
REMARK  200  A    between atoms: _468  and  _469
REMARK  201  A    between atoms: _472  and  _474
REMARK  202  A    between atoms: _474  and  _475
REMARK  203  A    between atoms: _474  and  _477
REMARK  204  A    between atoms: _477  and  _478
REMARK  205  A    between atoms: _481  and  _483
REMARK  206  A    between atoms: _483  and  _484
REMARK  207  A    between atoms: _483  and  _486
REMARK  208  A    between atoms: _486  and  _487
REMARK  209  A    between atoms: _490  and  _492
REMARK  210  A    between atoms: _492  and  _493
REMARK  211  A    between atoms: _492  and  _495
REMARK  212  A    between atoms: _495  and  _496
REMARK  213  A    between atoms: _499  and  _501
REMARK  214  A    between atoms: _501  and  _502
REMARK  215  A    between atoms: _501  and  _504
REMARK  216  A    between atoms: _504  and  _505
REMARK  217  A    between atoms: _510  and  _511
REMARK  218  A    between atoms: _513  and  _515
REMARK  219  A    between atoms: _515  and  _516
REMARK  220  A    between atoms: _515  and  _518
REMARK  221  A    between atoms: _521  and  _523
REMARK  222  A    between atoms: _523  and  _524
REMARK  223  A    between atoms: _526  and  _528
REMARK  224  A    between atoms: _528  and  _529
REMARK  225  A    between atoms: _528  and  _531
REMARK  226  A    between atoms: _531  and  _532
REMARK  227  A    between atoms: _538  and  _540
REMARK  228  A    between atoms: _540  and  _541
REMARK  229  A    between atoms: _543  and  _545
REMARK  230  A    between atoms: _545  and  _546
REMARK  231  A    between atoms: _545  and  _548
REMARK  232  A    between atoms: _548  and  _549
REMARK  233  A    between atoms: _555  and  _557
REMARK  234  A    between atoms: _557  and  _558
REMARK  235  A    between atoms: _560  and  _562
REMARK  236  A    between atoms: _562  and  _563
REMARK  237  A    between atoms: _565  and  _567
REMARK  238  A    between atoms: _567  and  _568
REMARK  239  A    between atoms: _567  and  _570
REMARK  240  A    between atoms: _570  and  _571
REMARK  241  A    between atoms: _571  and  _572
REMARK  242  A    between atoms: _577  and  _579
REMARK  243  A    between atoms: _579  and  _580
REMARK  244  A    between atoms: _579  and  _582
REMARK  245  A    between atoms: _582  and  _583
REMARK  246  A    between atoms: _585  and  _587
REMARK  247  A    between atoms: _587  and  _588
REMARK  248  A    between atoms: _587  and  _590
REMARK  249  A    between atoms: _590  and  _591
REMARK  250  A    between atoms: _593  and  _595
REMARK  251  A    between atoms: _595  and  _596
REMARK  252  A    between atoms: _598  and  _600
REMARK  253  A    between atoms: _600  and  _601
REMARK  254  A    between atoms: _600  and  _603
REMARK  255  A    between atoms: _603  and  _604
REMARK  256  A    between atoms: _607  and  _609
REMARK  257  A    between atoms: _609  and  _610
REMARK  258  A    between atoms: _612  and  _614
REMARK  259  A    between atoms: _614  and  _615
REMARK  260  A    between atoms: _614  and  _617
REMARK  261  A    between atoms: _617  and  _618
REMARK  262  A    between atoms: _621  and  _623
REMARK  263  A    between atoms: _623  and  _624
REMARK  264  A    between atoms: _623  and  _626
REMARK  265  A    between atoms: _626  and  _627
REMARK  266  A    between atoms: _632  and  _634
REMARK  267  A    between atoms: _634  and  _635
REMARK  268  A    between atoms: _634  and  _637
REMARK  269  A    between atoms: _637  and  _638
REMARK  270  A    between atoms: _641  and  _643
REMARK  271  A    between atoms: _643  and  _644
REMARK  272  A    between atoms: _643  and  _646
REMARK  273  A    between atoms: _646  and  _647
REMARK  274  A    between atoms: _653  and  _655
REMARK  275  A    between atoms: _655  and  _656
REMARK  276  A    between atoms: _658  and  _660
REMARK  277  A    between atoms: _660  and  _661
REMARK  278  A    between atoms: _660  and  _663
REMARK  279  A    between atoms: _663  and  _664
REMARK                            x       y       z     vdW  Elec       q    Type
REMARK                         _______ _______ _______ _____ _____    ______ ____
ROOT
ATOM      1  CA  ASP A   3       7.719  22.654  18.724  0.00  0.00    +0.160 C 
ENDROOT
BRANCH   1   2
ATOM      2  C   ASP A   3       8.270  23.799  17.896  0.00  0.00    +0.241 C 
ATOM      3  N   ALA A   4       9.620  23.802  17.661  0.00  0.00    -0.297 N 
ATOM      4  H   ALA A   4      10.220  23.060  18.075  0.00  0.00    +0.150 HD
ATOM      5  O   ASP A   3       7.542  24.689  17.582  0.00  0.00    -0.273 OA
BRANCH   3   6
ATOM      6  CA  ALA A   4      10.214  24.837  16.836  0.00  0.00    +0.149 C 
ATOM      7  CB  ALA A   4      10.288  26.258  17.511  0.00  0.00    +0.031 C 
BRANCH   6   8
ATOM      8  C   ALA A   4      11.652  24.407  16.528  0.00  0.00    +0.241 C 
ATOM      9  O   ALA A   4      12.087  23.390  17.088  0.00  0.00    -0.273 OA
ATOM     10  N   TYR A   5      12.301  25.089  15.613  0.00  0.00    -0.298 N 
ATOM     11  H   TYR A   5      11.832  25.906  15.173  0.00  0.00    +0.150 HD
BRANCH  10  12
ATOM     12  CA  TYR A   5      13.661  24.743  15.188  0.00  0.00    +0.141 C 
BRANCH  12  13
ATOM     13  C   TYR A   5      14.612  25.954  15.425  0.00  0.00    +0.227 C 
ATOM     14  O   TYR A   5      14.262  27.094  15.088  0.00  0.00    -0.286 OA
ENDBRANCH  12  13
BRANCH  12  15
ATOM     15  CB  TYR A   5      13.639  24.469  13.659  0.00  0.00    +0.054 C 
BRANCH  15  16
ATOM     16  CG  TYR A   5      12.935  23.134  13.378  0.00  0.00    -0.020 A 
ATOM     17  CD2 TYR A   5      11.554  23.171  13.277  0.00  0.00    -0.001 A 
ATOM     18  CE2 TYR A   5      10.736  22.050  13.087  0.00  0.00    +0.036 A 
ATOM     19  CZ  TYR A   5      11.332  20.814  12.898  0.00  0.00    +0.134 A 
ATOM     20  CE1 TYR A   5      12.710  20.816  12.945  0.00  0.00    +0.036 A 
ATOM     21  CD1 TYR A   5      13.527  21.871  13.200  0.00  0.00    -0.001 A 
BRANCH  19  22
ATOM     22  OH  TYR A   5      10.509  19.710  12.641  0.00  0.00    -0.506 OA
ATOM     23  HH  TYR A   5      11.069  18.901  12.528  0.00  0.00    +0.292 HD
ENDBRANCH  19  22
ENDBRANCH  15  16
ENDBRANCH  12  15
ENDBRANCH  10  12
ENDBRANCH   6   8
ENDBRANCH   3   6
ENDBRANCH   1   2
BRANCH   1  25
ATOM     24  C   ASP A   2       8.680  20.877  17.449  0.00  0.00    +0.241 C 
ATOM     25  N   ASP A   3       8.660  21.485  18.614  0.00  0.00    -0.297 N 
ATOM     26  H   ASP A   3       9.256  21.178  19.409  0.00  0.00    +0.150 HD
ATOM     27  O   ASP A   2       8.055  21.240  16.402  0.00  0.00    -0.273 OA
BRANCH  24  28
ATOM     28  CA  ASP A   2       9.558  19.626  17.261  0.00  0.00    +0.160 C 
BRANCH  28  30
ATOM     29  C   LEU A   1       8.249  18.220  18.727  0.00  0.00    +0.238 C 
ATOM     30  N   ASP A   2       9.391  18.771  18.410  0.00  0.00    -0.297 N 
ATOM     31  H   ASP A   2      10.217  18.584  19.014  0.00  0.00    +0.150 HD
ATOM     32  O   LEU A   1       7.195  18.344  18.071  0.00  0.00    -0.274 OA
BRANCH  29  33
ATOM     33  CA  LEU A   1       8.111  17.461  20.024  0.00  0.00    +0.145 C 
BRANCH  33  34
ATOM     34  N   LEU A   1       9.271  17.274  20.894  0.00  0.00    -0.238 NA
ATOM     35  H   LEU A   1       9.478  17.989  21.620  0.00  0.00    +0.142 HD
ENDBRANCH  33  34
BRANCH  33  36
ATOM     36  CB  LEU A   1       7.017  18.190  20.821  0.00  0.00    +0.026 C 
BRANCH  36  37
ATOM     37  CG  LEU A   1       6.615  17.346  22.039  0.00  0.00    +0.002 C 
ATOM     38  CD2 LEU A   1       5.733  18.086  23.021  0.00  0.00    +0.000 C 
ATOM     39  CD1 LEU A   1       6.121  15.925  21.760  0.00  0.00    +0.000 C 
ENDBRANCH  36  37
ENDBRANCH  33  36
ENDBRANCH  29  33
ENDBRANCH  28  30
BRANCH  28  40
ATOM     40  CB  ASP A   2       8.993  18.904  15.981  0.00  0.00    +0.143 C 
BRANCH  40  41
ATOM     41  CG  ASP A   2       9.911  17.780  15.514  0.00  0.00    +0.367 C 
ATOM     42  OD2 ASP A   2      10.979  17.614  16.183  0.00  0.00    -0.246 OA
ATOM     43  OD1 ASP A   2       9.571  17.032  14.587  0.00  0.00    -0.246 OA
ENDBRANCH  40  41
ENDBRANCH  28  40
ENDBRANCH  24  28
ENDBRANCH   1  25
BRANCH   1  44
ATOM     44  CB  ASP A   3       7.774  23.276  20.154  0.00  0.00    +0.143 C 
BRANCH  44  45
ATOM     45  CG  ASP A   3       6.699  22.551  20.945  0.00  0.00    +0.367 C 
ATOM     46  OD2 ASP A   3       7.024  21.924  21.947  0.00  0.00    -0.246 OA
ATOM     47  OD1 ASP A   3       5.523  22.600  20.559  0.00  0.00    -0.246 OA
ENDBRANCH  44  45
ENDBRANCH   1  44
TORSDOF 19
REMARK  Name = ../refined-set-2016/4er1/4er1_pocket.pdb
REMARK  279 active torsions:
REMARK  status: ('A' for Active; 'I' for Inactive)
REMARK    1  A    between atoms: _1  and  _3
REMARK    2  A    between atoms: _3  and  _4
REMARK    3  A    between atoms: _3  and  _6
REMARK    4  A    between atoms: _6  and  _7
REMARK    5  A    between atoms: _10  and  _12
REMARK    6  A    between atoms: _12  and  _13
REMARK    7  A    between atoms: _12  and  _15
REMARK    8  A    between atoms: _15  and  _16
REMARK    9  A    between atoms: _19  and  _21
REMARK   10  A    between atoms: _21  and  _22
REMARK   11  A    between atoms: _21  and  _24
REMARK   12  A    between atoms: _24  and  _25
REMARK   13  A    between atoms: _28  and  _30
REMARK   14  A    between atoms: _30  and  _31
REMARK   15  A    between atoms: _30  and  _33
REMARK   16  A    between atoms: _33  and  _34
REMARK   17  A    between atoms: _37  and  _39
REMARK   18  A    between atoms: _39  and  _40
REMARK   19  A    between atoms: _39  and  _42
REMARK   20  A    between atoms: _42  and  _43
REMARK   21  A    between atoms: _46  and  _48
REMARK   22  A    between atoms: _48  and  _49
REMARK   23  A    between atoms: _52  and  _54
REMARK   24  A    between atoms: _54  and  _55
REMARK   25  A    between atoms: _54  and  _57
REMARK   26  A    between atoms: _57  and  _58
REMARK   27  A    between atoms: _63  and  _64
REMARK   28  A    between atoms: _66  and  _68
REMARK   29  A    between atoms: _68  and  _69
REMARK   30  A    between atoms: _68  and  _71
REMARK   31  A    between atoms: _71  and  _72
REMARK   32  A    between atoms: _75  and  _77
REMARK   33  A    between atoms: _77  and  _78
REMARK   34  A    between atoms: _77  and  _80
REMARK   35  A    between atoms: _80  and  _81
REMARK   36  A    between atoms: _87  and  _89
REMARK   37  A    between atoms: _89  and  _90
REMARK   38  A    between atoms: _89  and  _92
REMARK   39  A    between atoms: _92  and  _93
REMARK   40  A    between atoms: _96  and  _98
REMARK   41  A    between atoms: _98  and  _99
REMARK   42  A    between atoms: _98  and  _101
REMARK   43  A    between atoms: _101  and  _102
REMARK   44  A    between atoms: _105  and  _107
REMARK   45  A    between atoms: _107  and  _108
REMARK   46  A    between atoms: _110  and  _112
REMARK   47  A    between atoms: _112  and  _113
REMARK   48  A    between atoms: _112  and  _115
REMARK   49  A    between atoms: _115  and  _116
REMARK   50  A    between atoms: _118  and  _120
REMARK   51  A    between atoms: _120  and  _121
REMARK   52  A    between atoms: _120  and  _123
REMARK   53  A    between atoms: _123  and  _124
REMARK   54  A    between atoms: _126  and  _128
REMARK   55  A    between atoms: _128  and  _129
REMARK   56  A    between atoms: _128  and  _131
REMARK   57  A    between atoms: _131  and  _132
REMARK   58  A    between atoms: _135  and  _137
REMARK   59  A    between atoms: _137  and  _138
REMARK   60  A    between atoms: _137  and  _140
REMARK   61  A    between atoms: _140  and  _141
REMARK   62  A    between atoms: _151  and  _153
REMARK   63  A    between atoms: _153  and  _154
REMARK   64  A    between atoms: _153  and  _156
REMARK   65  A    between atoms: _156  and  _157
REMARK   66  A    between atoms: _159  and  _161
REMARK   67  A    between atoms: _161  and  _162
REMARK   68  A    between atoms: _161  and  _164
REMARK   69  A    between atoms: _164  and  _165
REMARK   70  A    between atoms: _168  and  _170
REMARK   71  A    between atoms: _170  and  _171
REMARK   72  A    between atoms: _170  and  _173
REMARK   73  A    between atoms: _173  and  _174
REMARK   74  A    between atoms: _176  and  _178
REMARK   75  A    between atoms: _178  and  _179
REMARK   76  A    between atoms: _178  and  _181
REMARK   77  A    between atoms: _181  and  _182
REMARK   78  A    between atoms: _187  and  _188
REMARK   79  A    between atoms: _190  and  _192
REMARK   80  A    between atoms: _192  and  _193
REMARK   81  A    between atoms: _195  and  _197
REMARK   82  A    between atoms: _197  and  _198
REMARK   83  A    between atoms: _197  and  _200
REMARK   84  A    between atoms: _200  and  _201
REMARK   85  A    between atoms: _204  and  _206
REMARK   86  A    between atoms: _206  and  _207
REMARK   87  A    between atoms: _209  and  _211
REMARK   88  A    between atoms: _211  and  _212
REMARK   89  A    between atoms: _211  and  _214
REMARK   90  A    between atoms: _214  and  _215
REMARK   91  A    between atoms: _217  and  _219
REMARK   92  A    between atoms: _219  and  _220
REMARK   93  A    between atoms: _219  and  _222
REMARK   94  A    between atoms: _222  and  _223
REMARK   95  A    between atoms: _225  and  _227
REMARK   96  A    between atoms: _227  and  _228
REMARK   97  A    between atoms: _227  and  _230
REMARK   98  A    between atoms: _230  and  _231
REMARK   99  A    between atoms: _233  and  _235
REMARK  100  A    between atoms: _235  and  _236
REMARK  101  A    between atoms: _235  and  _238
REMARK  102  A    between atoms: _238  and  _239
REMARK  103  A    between atoms: _241  and  _243
REMARK  104  A    between atoms: _243  and  _244
REMARK  105  A    between atoms: _243  and  _246
REMARK  106  A    between atoms: _246  and  _247
REMARK  107  A    between atoms: _249  and  _251
REMARK  108  A    between atoms: _251  and  _252
REMARK  109  A    between atoms: _251  and  _254
REMARK  110  A    between atoms: _254  and  _255
REMARK  111  A    between atoms: _261  and  _263
REMARK  112  A    between atoms: _263  and  _264
REMARK  113  A    between atoms: _263  and  _266
REMARK  114  A    between atoms: _266  and  _267
REMARK  115  A    between atoms: _270  and  _272
REMARK  116  A    between atoms: _272  and  _273
REMARK  117  A    between atoms: _272  and  _275
REMARK  118  A    between atoms: _275  and  _276
REMARK  119  A    between atoms: _276  and  _277
REMARK  120  A    between atoms: _280  and  _282
REMARK  121  A    between atoms: _282  and  _283
REMARK  122  A    between atoms: _282  and  _285
REMARK  123  A    between atoms: _285  and  _286
REMARK  124  A    between atoms: _289  and  _291
REMARK  125  A    between atoms: _291  and  _292
REMARK  126  A    between atoms: _291  and  _294
REMARK  127  A    between atoms: _294  and  _295
REMARK  128  A    between atoms: _297  and  _299
REMARK  129  A    between atoms: _299  and  _300
REMARK  130  A    between atoms: _299  and  _302
REMARK  131  A    between atoms: _302  and  _303
REMARK  132  A    between atoms: _306  and  _308
REMARK  133  A    between atoms: _308  and  _309
REMARK  134  A    between atoms: _308  and  _311
REMARK  135  A    between atoms: _311  and  _312
REMARK  136  A    between atoms: _315  and  _317
REMARK  137  A    between atoms: _317  and  _318
REMARK  138  A    between atoms: _320  and  _322
REMARK  139  A    between atoms: _322  and  _323
REMARK  140  A    between atoms: _322  and  _325
REMARK  141  A    between atoms: _325  and  _326
REMARK  142  A    between atoms: _329  and  _331
REMARK  143  A    between atoms: _331  and  _332
REMARK  144  A    between atoms: _331  and  _334
REMARK  145  A    between atoms: _334  and  _335
REMARK  146  A    between atoms: _338  and  _340
REMARK  147  A    between atoms: _340  and  _341
REMARK  148  A    between atoms: _340  and  _343
REMARK  149  A    between atoms: _343  and  _344
REMARK  150  A    between atoms: _347  and  _349
REMARK  151  A    between atoms: _349  and  _350
REMARK  152  A    between atoms: _353  and  _355
REMARK  153  A    between atoms: _355  and  _356
REMARK  154  A    between atoms: _355  and  _358
REMARK  155  A    between atoms: _358  and  _359
REMARK  156  A    between atoms: _362  and  _364
REMARK  157  A    between atoms: _364  and  _365
REMARK  158  A    between atoms: _364  and  _367
REMARK  159  A    between atoms: _367  and  _368
REMARK  160  A    between atoms: _371  and  _373
REMARK  161  A    between atoms: _373  and  _374
REMARK  162  A    between atoms: _373  and  _376
REMARK  163  A    between atoms: _376  and  _377
REMARK  164  A    between atoms: _382  and  _384
REMARK  165  A    between atoms: _384  and  _385
REMARK  166  A    between atoms: _384  and  _387
REMARK  167  A    between atoms: _387  and  _388
REMARK  168  A    between atoms: _391  and  _393
REMARK  169  A    between atoms: _393  and  _394
REMARK  170  A    between atoms: _393  and  _396
REMARK  171  A    between atoms: _396  and  _397
REMARK  172  A    between atoms: _397  and  _398
REMARK  173  A    between atoms: _403  and  _405
REMARK  174  A    between atoms: _405  and  _406
REMARK  175  A    between atoms: _408  and  _410
REMARK  176  A    between atoms: _410  and  _411
REMARK  177  A    between atoms: _410  and  _413
REMARK  178  A    between atoms: _413  and  _414
REMARK  179  A    between atoms: _420  and  _422
REMARK  180  A    between atoms: _422  and  _423
REMARK  181  A    between atoms: _425  and  _427
REMARK  182  A    between atoms: _427  and  _428
REMARK  183  A    between atoms: _427  and  _430
REMARK  184  A    between atoms: _430  and  _431
REMARK  185  A    between atoms: _434  and  _436
REMARK  186  A    between atoms: _436  and  _437
REMARK  187  A    between atoms: _440  and  _442
REMARK  188  A    between atoms: _442  and  _443
REMARK  189  A    between atoms: _442  and  _445
REMARK  190  A    between atoms: _445  and  _446
REMARK  191  A    between atoms: _449  and  _451
REMARK  192  A    between atoms: _451  and  _452
REMARK  193  A    between atoms: _451  and  _454
REMARK  194  A    between atoms: _454  and  _455
REMARK  195  A    between atoms: _458  and  _460
REMARK  196  A    between atoms: _460  and  _461
REMARK  197  A    between atoms: _463  and  _465
REMARK  198  A    between atoms: _465  and  _466
REMARK  199  A    between atoms: _465  and  _468
REMARK  200  A    between atoms: _468  and  _469
REMARK  201  A    between atoms: _472  and  _474
REMARK  202  A    between atoms: _474  and  _475
REMARK  203  A    between atoms: _474  and  _477
REMARK  204  A    between atoms: _477  and  _478
REMARK  205  A    between atoms: _481  and  _483
REMARK  206  A    between atoms: _483  and  _484
REMARK  207  A    between atoms: _483  and  _486
REMARK  208  A    between atoms: _486  and  _487
REMARK  209  A    between atoms: _490  and  _492
REMARK  210  A    between atoms: _492  and  _493
REMARK  211  A    between atoms: _492  and  _495
REMARK  212  A    between atoms: _495  and  _496
REMARK  213  A    between atoms: _499  and  _501
REMARK  214  A    between atoms: _501  and  _502
REMARK  215  A    between atoms: _501  and  _504
REMARK  216  A    between atoms: _504  and  _505
REMARK  217  A    between atoms: _510  and  _511
REMARK  218  A    between atoms: _513  and  _515
REMARK  219  A    between atoms: _515  and  _516
REMARK  220  A    between atoms: _515  and  _518
REMARK  221  A    between atoms: _521  and  _523
REMARK  222  A    between atoms: _523  and  _524
REMARK  223  A    between atoms: _526  and  _528
REMARK  224  A    between atoms: _528  and  _529
REMARK  225  A    between atoms: _528  and  _531
REMARK  226  A    between atoms: _531  and  _532
REMARK  227  A    between atoms: _538  and  _540
REMARK  228  A    between atoms: _540  and  _541
REMARK  229  A    between atoms: _543  and  _545
REMARK  230  A    between atoms: _545  and  _546
REMARK  231  A    between atoms: _545  and  _548
REMARK  232  A    between atoms: _548  and  _549
REMARK  233  A    between atoms: _555  and  _557
REMARK  234  A    between atoms: _557  and  _558
REMARK  235  A    between atoms: _560  and  _562
REMARK  236  A    between atoms: _562  and  _563
REMARK  237  A    between atoms: _565  and  _567
REMARK  238  A    between atoms: _567  and  _568
REMARK  239  A    between atoms: _567  and  _570
REMARK  240  A    between atoms: _570  and  _571
REMARK  241  A    between atoms: _571  and  _572
REMARK  242  A    between atoms: _577  and  _579
REMARK  243  A    between atoms: _579  and  _580
REMARK  244  A    between atoms: _579  and  _582
REMARK  245  A    between atoms: _582  and  _583
REMARK  246  A    between atoms: _585  and  _587
REMARK  247  A    between atoms: _587  and  _588
REMARK  248  A    between atoms: _587  and  _590
REMARK  249  A    between atoms: _590  and  _591
REMARK  250  A    between atoms: _593  and  _595
REMARK  251  A    between atoms: _595  and  _596
REMARK  252  A    between atoms: _598  and  _600
REMARK  253  A    between atoms: _600  and  _601
REMARK  254  A    between atoms: _600  and  _603
REMARK  255  A    between atoms: _603  and  _604
REMARK  256  A    between atoms: _607  and  _609
REMARK  257  A    between atoms: _609  and  _610
REMARK  258  A    between atoms: _612  and  _614
REMARK  259  A    between atoms: _614  and  _615
REMARK  260  A    between atoms: _614  and  _617
REMARK  261  A    between atoms: _617  and  _618
REMARK  262  A    between atoms: _621  and  _623
REMARK  263  A    between atoms: _623  and  _624
REMARK  264  A    between atoms: _623  and  _626
REMARK  265  A    between atoms: _626  and  _627
REMARK  266  A    between atoms: _632  and  _634
REMARK  267  A    between atoms: _634  and  _635
REMARK  268  A    between atoms: _634  and  _637
REMARK  269  A    between atoms: _637  and  _638
REMARK  270  A    between atoms: _641  and  _643
REMARK  271  A    between atoms: _643  and  _644
REMARK  272  A    between atoms: _643  and  _646
REMARK  273  A    between atoms: _646  and  _647
REMARK  274  A    between atoms: _653  and  _655
REMARK  275  A    between atoms: _655  and  _656
REMARK  276  A    between atoms: _658  and  _660
REMARK  277  A    between atoms: _660  and  _661
REMARK  278  A    between atoms: _660  and  _663
REMARK  279  A    between atoms: _663  and  _664
REMARK                            x       y       z     vdW  Elec       q    Type
REMARK                         _______ _______ _______ _____ _____    ______ ____
ROOT
ATOM      1  CA  THR A   4       9.013  32.676   7.255  0.00  0.00    +0.176 C 
ENDROOT
BRANCH   1   2
ATOM      2  C   THR A   4       7.661  33.371   7.348  0.00  0.00    +0.243 C 
ATOM      3  N   GLY A   5       7.116  33.489   8.519  0.00  0.00    -0.295 N 
ATOM      4  H   GLY A   5       7.524  32.964   9.319  0.00  0.00    +0.150 HD
ATOM      5  O   THR A   4       7.228  34.043   6.402  0.00  0.00    -0.273 OA
BRANCH   3   6
ATOM      6  CA  GLY A   5       5.927  34.351   8.755  0.00  0.00    +0.176 C 
BRANCH   6   7
ATOM      7  C   GLY A   5       6.180  35.715   9.322  0.00  0.00    +0.243 C 
ATOM      8  O   GLY A   5       5.240  36.417   9.680  0.00  0.00    -0.273 OA
ATOM      9  N   SER A   6       7.391  36.267   9.419  0.00  0.00    -0.295 N 
ATOM     10  H   SER A   6       8.238  35.701   9.209  0.00  0.00    +0.150 HD
BRANCH   9  11
ATOM     11  CA  SER A   6       7.532  37.706   9.831  0.00  0.00    +0.178 C 
BRANCH  11  12
ATOM     12  C   SER A   6       8.882  38.150   9.352  0.00  0.00    +0.243 C 
ATOM     13  N   SER A   7       9.268  39.410   9.576  0.00  0.00    -0.295 N 
ATOM     14  H   SER A   7       8.847  39.984  10.334  0.00  0.00    +0.150 HD
ATOM     15  O   SER A   6       9.532  37.374   8.673  0.00  0.00    -0.273 OA
BRANCH  13  16
ATOM     16  CA  SER A   7      10.342  39.954   8.675  0.00  0.00    +0.178 C 
BRANCH  16  17
ATOM     17  C   SER A   7      11.258  40.776   9.572  0.00  0.00    +0.243 C 
ATOM     18  N   ASP A   8      11.370  40.482  10.886  0.00  0.00    -0.297 N 
ATOM     19  H   ASP A   8      10.755  39.743  11.282  0.00  0.00    +0.150 HD
ATOM     20  O   SER A   7      11.878  41.702   9.057  0.00  0.00    -0.273 OA
BRANCH  18  21
ATOM     21  CA  ASP A   8      12.302  41.144  11.765  0.00  0.00    +0.148 C 
BRANCH  21  22
ATOM     22  C   ASP A   8      13.406  40.195  12.282  0.00  0.00    +0.227 C 
ATOM     23  O   ASP A   8      13.119  39.049  12.620  0.00  0.00    -0.286 OA
ENDBRANCH  21  22
BRANCH  21  24
ATOM     24  CB  ASP A   8      11.462  41.528  13.100  0.00  0.00    +0.142 C 
BRANCH  24  25
ATOM     25  CG  ASP A   8      10.675  42.824  12.705  0.00  0.00    +0.367 C 
ATOM     26  OD2 ASP A   8      10.800  43.904  13.313  0.00  0.00    -0.246 OA
ATOM     27  OD1 ASP A   8       9.843  42.969  11.781  0.00  0.00    -0.246 OA
ENDBRANCH  24  25
ENDBRANCH  21  24
ENDBRANCH  18  21
ENDBRANCH  16  17
BRANCH  16  28
ATOM     28  CB  SER A   7       9.738  40.941   7.694  0.00  0.00    +0.166 C 
BRANCH  28  29
ATOM     29  OG  SER A   7       8.751  40.189   6.984  0.00  0.00    -0.380 OA
ATOM     30  H   SER A   7       8.309  40.773   6.318  0.00  0.00    +0.211 HD
ENDBRANCH  28  29
ENDBRANCH  16  28
ENDBRANCH  13  16
ENDBRANCH  11  12
BRANCH  11  31
ATOM     31  CB  SER A   6       7.642  37.743  11.406  0.00  0.00    +0.166 C 
BRANCH  31  32
ATOM     32  OG  SER A   6       8.827  37.025  11.938  0.00  0.00    -0.380 OA
ATOM     33  H   SER A   6       8.784  36.074  11.667  0.00  0.00    +0.211 HD
ENDBRANCH  31  32
ENDBRANCH  11  31
ENDBRANCH   9  11
ENDBRANCH   6   7
ENDBRANCH   3   6
ENDBRANCH   1   2
BRANCH   1  36
ATOM     34  C   ASP A   3       9.925  33.048   9.474  0.00  0.00    +0.241 C 
ATOM     35  O   ASP A   3      10.158  34.239   9.174  0.00  0.00    -0.273 OA
ATOM     36  N   THR A   4       9.395  32.178   8.605  0.00  0.00    -0.295 N 
ATOM     37  H   THR A   4       9.254  31.181   8.866  0.00  0.00    +0.150 HD
BRANCH  34  38
ATOM     38  CA  ASP A   3      10.378  32.466  10.833  0.00  0.00    +0.160 C 
BRANCH  38  41
ATOM     39  C   PHE A   2      12.491  31.288  11.044  0.00  0.00    +0.241 C 
ATOM     40  O   PHE A   2      11.929  30.200  11.088  0.00  0.00    -0.273 OA
ATOM     41  N   ASP A   3      11.871  32.395  10.796  0.00  0.00    -0.297 N 
ATOM     42  H   ASP A   3      12.419  33.249  10.567  0.00  0.00    +0.150 HD
BRANCH  39  43
ATOM     43  CA  PHE A   2      14.022  31.340  11.328  0.00  0.00    +0.153 C 
BRANCH  43  46
ATOM     44  C   ASP A   1      13.990  31.371  13.749  0.00  0.00    +0.239 C 
ATOM     45  O   ASP A   1      13.525  32.493  13.745  0.00  0.00    -0.274 OA
ATOM     46  N   PHE A   2      14.234  30.691  12.639  0.00  0.00    -0.297 N 
ATOM     47  H   PHE A   2      14.572  29.709  12.689  0.00  0.00    +0.150 HD
BRANCH  44  48
ATOM     48  CA  ASP A   1      14.174  30.654  15.091  0.00  0.00    +0.156 C 
BRANCH  48  49
ATOM     49  N   ASP A   1      15.305  31.314  15.790  0.00  0.00    -0.238 NA
ATOM     50  H   ASP A   1      15.073  32.054  16.483  0.00  0.00    +0.142 HD
ENDBRANCH  48  49
BRANCH  48  51
ATOM     51  CB  ASP A   1      12.965  30.909  16.036  0.00  0.00    +0.140 C 
BRANCH  51  52
ATOM     52  CG  ASP A   1      11.714  30.070  15.696  0.00  0.00    +0.367 C 
ATOM     53  OD2 ASP A   1      10.768  30.018  16.537  0.00  0.00    -0.246 OA
ATOM     54  OD1 ASP A   1      11.573  29.542  14.590  0.00  0.00    -0.246 OA
ENDBRANCH  51  52
ENDBRANCH  48  51
ENDBRANCH  44  48
ENDBRANCH  43  46
BRANCH  43  55
ATOM     55  CB  PHE A   2      14.678  30.399  10.240  0.00  0.00    +0.055 C 
BRANCH  55  56
ATOM     56  CG  PHE A   2      16.183  30.612  10.187  0.00  0.00    -0.020 A 
ATOM     57  CD2 PHE A   2      16.820  31.218  11.342  0.00  0.00    -0.004 A 
ATOM     58  CE2 PHE A   2      18.224  31.348  11.168  0.00  0.00    -0.000 A 
ATOM     59  CZ  PHE A   2      18.863  30.985  10.000  0.00  0.00    -0.000 A 
ATOM     60  CE1 PHE A   2      18.168  30.388   8.897  0.00  0.00    -0.000 A 
ATOM     61  CD1 PHE A   2      16.795  30.231   9.020  0.00  0.00    -0.004 A 
ENDBRANCH  55  56
ENDBRANCH  43  55
ENDBRANCH  39  43
ENDBRANCH  38  41
BRANCH  38  62
ATOM     62  CB  ASP A   3      10.043  33.470  11.987  0.00  0.00    +0.143 C 
BRANCH  62  63
ATOM     63  CG  ASP A   3       8.510  33.632  12.000  0.00  0.00    +0.367 C 
ATOM     64  OD2 ASP A   3       8.062  34.628  12.588  0.00  0.00    -0.246 OA
ATOM     65  OD1 ASP A   3       7.786  32.808  11.450  0.00  0.00    -0.246 OA
ENDBRANCH  62  63
ENDBRANCH  38  62
ENDBRANCH  34  38
ENDBRANCH   1  36
BRANCH   1  66
ATOM     66  CB  THR A   4       8.937  31.624   6.198  0.00  0.00    +0.137 C 
ATOM     67  CG2 THR A   4      10.221  30.986   5.895  0.00  0.00    +0.034 C 
BRANCH  66  68
ATOM     68  OG1 THR A   4       7.917  30.660   6.536  0.00  0.00    -0.382 OA
ATOM     69  HG1 THR A   4       7.042  31.118   6.605  0.00  0.00    +0.210 HD
ENDBRANCH  66  68
ENDBRANCH   1  66
TORSDOF 30
REMARK  Name = ../refined-set-2016/4er1/4er1_pocket.pdb
REMARK  279 active torsions:
REMARK  status: ('A' for Active; 'I' for Inactive)
REMARK    1  A    between atoms: _1  and  _3
REMARK    2  A    between atoms: _3  and  _4
REMARK    3  A    between atoms: _3  and  _6
REMARK    4  A    between atoms: _6  and  _7
REMARK    5  A    between atoms: _10  and  _12
REMARK    6  A    between atoms: _12  and  _13
REMARK    7  A    between atoms: _12  and  _15
REMARK    8  A    between atoms: _15  and  _16
REMARK    9  A    between atoms: _19  and  _21
REMARK   10  A    between atoms: _21  and  _22
REMARK   11  A    between atoms: _21  and  _24
REMARK   12  A    between atoms: _24  and  _25
REMARK   13  A    between atoms: _28  and  _30
REMARK   14  A    between atoms: _30  and  _31
REMARK   15  A    between atoms: _30  and  _33
REMARK   16  A    between atoms: _33  and  _34
REMARK   17  A    between atoms: _37  and  _39
REMARK   18  A    between atoms: _39  and  _40
REMARK   19  A    between atoms: _39  and  _42
REMARK   20  A    between atoms: _42  and  _43
REMARK   21  A    between atoms: _46  and  _48
REMARK   22  A    between atoms: _48  and  _49
REMARK   23  A    between atoms: _52  and  _54
REMARK   24  A    between atoms: _54  and  _55
REMARK   25  A    between atoms: _54  and  _57
REMARK   26  A    between atoms: _57  and  _58
REMARK   27  A    between atoms: _63  and  _64
REMARK   28  A    between atoms: _66  and  _68
REMARK   29  A    between atoms: _68  and  _69
REMARK   30  A    between atoms: _68  and  _71
REMARK   31  A    between atoms: _71  and  _72
REMARK   32  A    between atoms: _75  and  _77
REMARK   33  A    between atoms: _77  and  _78
REMARK   34  A    between atoms: _77  and  _80
REMARK   35  A    between atoms: _80  and  _81
REMARK   36  A    between atoms: _87  and  _89
REMARK   37  A    between atoms: _89  and  _90
REMARK   38  A    between atoms: _89  and  _92
REMARK   39  A    between atoms: _92  and  _93
REMARK   40  A    between atoms: _96  and  _98
REMARK   41  A    between atoms: _98  and  _99
REMARK   42  A    between atoms: _98  and  _101
REMARK   43  A    between atoms: _101  and  _102
REMARK   44  A    between atoms: _105  and  _107
REMARK   45  A    between atoms: _107  and  _108
REMARK   46  A    between atoms: _110  and  _112
REMARK   47  A    between atoms: _112  and  _113
REMARK   48  A    between atoms: _112  and  _115
REMARK   49  A    between atoms: _115  and  _116
REMARK   50  A    between atoms: _118  and  _120
REMARK   51  A    between atoms: _120  and  _121
REMARK   52  A    between atoms: _120  and  _123
REMARK   53  A    between atoms: _123  and  _124
REMARK   54  A    between atoms: _126  and  _128
REMARK   55  A    between atoms: _128  and  _129
REMARK   56  A    between atoms: _128  and  _131
REMARK   57  A    between atoms: _131  and  _132
REMARK   58  A    between atoms: _135  and  _137
REMARK   59  A    between atoms: _137  and  _138
REMARK   60  A    between atoms: _137  and  _140
REMARK   61  A    between atoms: _140  and  _141
REMARK   62  A    between atoms: _151  and  _153
REMARK   63  A    between atoms: _153  and  _154
REMARK   64  A    between atoms: _153  and  _156
REMARK   65  A    between atoms: _156  and  _157
REMARK   66  A    between atoms: _159  and  _161
REMARK   67  A    between atoms: _161  and  _162
REMARK   68  A    between atoms: _161  and  _164
REMARK   69  A    between atoms: _164  and  _165
REMARK   70  A    between atoms: _168  and  _170
REMARK   71  A    between atoms: _170  and  _171
REMARK   72  A    between atoms: _170  and  _173
REMARK   73  A    between atoms: _173  and  _174
REMARK   74  A    between atoms: _176  and  _178
REMARK   75  A    between atoms: _178  and  _179
REMARK   76  A    between atoms: _178  and  _181
REMARK   77  A    between atoms: _181  and  _182
REMARK   78  A    between atoms: _187  and  _188
REMARK   79  A    between atoms: _190  and  _192
REMARK   80  A    between atoms: _192  and  _193
REMARK   81  A    between atoms: _195  and  _197
REMARK   82  A    between atoms: _197  and  _198
REMARK   83  A    between atoms: _197  and  _200
REMARK   84  A    between atoms: _200  and  _201
REMARK   85  A    between atoms: _204  and  _206
REMARK   86  A    between atoms: _206  and  _207
REMARK   87  A    between atoms: _209  and  _211
REMARK   88  A    between atoms: _211  and  _212
REMARK   89  A    between atoms: _211  and  _214
REMARK   90  A    between atoms: _214  and  _215
REMARK   91  A    between atoms: _217  and  _219
REMARK   92  A    between atoms: _219  and  _220
REMARK   93  A    between atoms: _219  and  _222
REMARK   94  A    between atoms: _222  and  _223
REMARK   95  A    between atoms: _225  and  _227
REMARK   96  A    between atoms: _227  and  _228
REMARK   97  A    between atoms: _227  and  _230
REMARK   98  A    between atoms: _230  and  _231
REMARK   99  A    between atoms: _233  and  _235
REMARK  100  A    between atoms: _235  and  _236
REMARK  101  A    between atoms: _235  and  _238
REMARK  102  A    between atoms: _238  and  _239
REMARK  103  A    between atoms: _241  and  _243
REMARK  104  A    between atoms: _243  and  _244
REMARK  105  A    between atoms: _243  and  _246
REMARK  106  A    between atoms: _246  and  _247
REMARK  107  A    between atoms: _249  and  _251
REMARK  108  A    between atoms: _251  and  _252
REMARK  109  A    between atoms: _251  and  _254
REMARK  110  A    between atoms: _254  and  _255
REMARK  111  A    between atoms: _261  and  _263
REMARK  112  A    between atoms: _263  and  _264
REMARK  113  A    between atoms: _263  and  _266
REMARK  114  A    between atoms: _266  and  _267
REMARK  115  A    between atoms: _270  and  _272
REMARK  116  A    between atoms: _272  and  _273
REMARK  117  A    between atoms: _272  and  _275
REMARK  118  A    between atoms: _275  and  _276
REMARK  119  A    between atoms: _276  and  _277
REMARK  120  A    between atoms: _280  and  _282
REMARK  121  A    between atoms: _282  and  _283
REMARK  122  A    between atoms: _282  and  _285
REMARK  123  A    between atoms: _285  and  _286
REMARK  124  A    between atoms: _289  and  _291
REMARK  125  A    between atoms: _291  and  _292
REMARK  126  A    between atoms: _291  and  _294
REMARK  127  A    between atoms: _294  and  _295
REMARK  128  A    between atoms: _297  and  _299
REMARK  129  A    between atoms: _299  and  _300
REMARK  130  A    between atoms: _299  and  _302
REMARK  131  A    between atoms: _302  and  _303
REMARK  132  A    between atoms: _306  and  _308
REMARK  133  A    between atoms: _308  and  _309
REMARK  134  A    between atoms: _308  and  _311
REMARK  135  A    between atoms: _311  and  _312
REMARK  136  A    between atoms: _315  and  _317
REMARK  137  A    between atoms: _317  and  _318
REMARK  138  A    between atoms: _320  and  _322
REMARK  139  A    between atoms: _322  and  _323
REMARK  140  A    between atoms: _322  and  _325
REMARK  141  A    between atoms: _325  and  _326
REMARK  142  A    between atoms: _329  and  _331
REMARK  143  A    between atoms: _331  and  _332
REMARK  144  A    between atoms: _331  and  _334
REMARK  145  A    between atoms: _334  and  _335
REMARK  146  A    between atoms: _338  and  _340
REMARK  147  A    between atoms: _340  and  _341
REMARK  148  A    between atoms: _340  and  _343
REMARK  149  A    between atoms: _343  and  _344
REMARK  150  A    between atoms: _347  and  _349
REMARK  151  A    between atoms: _349  and  _350
REMARK  152  A    between atoms: _353  and  _355
REMARK  153  A    between atoms: _355  and  _356
REMARK  154  A    between atoms: _355  and  _358
REMARK  155  A    between atoms: _358  and  _359
REMARK  156  A    between atoms: _362  and  _364
REMARK  157  A    between atoms: _364  and  _365
REMARK  158  A    between atoms: _364  and  _367
REMARK  159  A    between atoms: _367  and  _368
REMARK  160  A    between atoms: _371  and  _373
REMARK  161  A    between atoms: _373  and  _374
REMARK  162  A    between atoms: _373  and  _376
REMARK  163  A    between atoms: _376  and  _377
REMARK  164  A    between atoms: _382  and  _384
REMARK  165  A    between atoms: _384  and  _385
REMARK  166  A    between atoms: _384  and  _387
REMARK  167  A    between atoms: _387  and  _388
REMARK  168  A    between atoms: _391  and  _393
REMARK  169  A    between atoms: _393  and  _394
REMARK  170  A    between atoms: _393  and  _396
REMARK  171  A    between atoms: _396  and  _397
REMARK  172  A    between atoms: _397  and  _398
REMARK  173  A    between atoms: _403  and  _405
REMARK  174  A    between atoms: _405  and  _406
REMARK  175  A    between atoms: _408  and  _410
REMARK  176  A    between atoms: _410  and  _411
REMARK  177  A    between atoms: _410  and  _413
REMARK  178  A    between atoms: _413  and  _414
REMARK  179  A    between atoms: _420  and  _422
REMARK  180  A    between atoms: _422  and  _423
REMARK  181  A    between atoms: _425  and  _427
REMARK  182  A    between atoms: _427  and  _428
REMARK  183  A    between atoms: _427  and  _430
REMARK  184  A    between atoms: _430  and  _431
REMARK  185  A    between atoms: _434  and  _436
REMARK  186  A    between atoms: _436  and  _437
REMARK  187  A    between atoms: _440  and  _442
REMARK  188  A    between atoms: _442  and  _443
REMARK  189  A    between atoms: _442  and  _445
REMARK  190  A    between atoms: _445  and  _446
REMARK  191  A    between atoms: _449  and  _451
REMARK  192  A    between atoms: _451  and  _452
REMARK  193  A    between atoms: _451  and  _454
REMARK  194  A    between atoms: _454  and  _455
REMARK  195  A    between atoms: _458  and  _460
REMARK  196  A    between atoms: _460  and  _461
REMARK  197  A    between atoms: _463  and  _465
REMARK  198  A    between atoms: _465  and  _466
REMARK  199  A    between atoms: _465  and  _468
REMARK  200  A    between atoms: _468  and  _469
REMARK  201  A    between atoms: _472  and  _474
REMARK  202  A    between atoms: _474  and  _475
REMARK  203  A    between atoms: _474  and  _477
REMARK  204  A    between atoms: _477  and  _478
REMARK  205  A    between atoms: _481  and  _483
REMARK  206  A    between atoms: _483  and  _484
REMARK  207  A    between atoms: _483  and  _486
REMARK  208  A    between atoms: _486  and  _487
REMARK  209  A    between atoms: _490  and  _492
REMARK  210  A    between atoms: _492  and  _493
REMARK  211  A    between atoms: _492  and  _495
REMARK  212  A    between atoms: _495  and  _496
REMARK  213  A    between atoms: _499  and  _501
REMARK  214  A    between atoms: _501  and  _502
REMARK  215  A    between atoms: _501  and  _504
REMARK  216  A    between atoms: _504  and  _505
REMARK  217  A    between atoms: _510  and  _511
REMARK  218  A    between atoms: _513  and  _515
REMARK  219  A    between atoms: _515  and  _516
REMARK  220  A    between atoms: _515  and  _518
REMARK  221  A    between atoms: _521  and  _523
REMARK  222  A    between atoms: _523  and  _524
REMARK  223  A    between atoms: _526  and  _528
REMARK  224  A    between atoms: _528  and  _529
REMARK  225  A    between atoms: _528  and  _531
REMARK  226  A    between atoms: _531  and  _532
REMARK  227  A    between atoms: _538  and  _540
REMARK  228  A    between atoms: _540  and  _541
REMARK  229  A    between atoms: _543  and  _545
REMARK  230  A    between atoms: _545  and  _546
REMARK  231  A    between atoms: _545  and  _548
REMARK  232  A    between atoms: _548  and  _549
REMARK  233  A    between atoms: _555  and  _557
REMARK  234  A    between atoms: _557  and  _558
REMARK  235  A    between atoms: _560  and  _562
REMARK  236  A    between atoms: _562  and  _563
REMARK  237  A    between atoms: _565  and  _567
REMARK  238  A    between atoms: _567  and  _568
REMARK  239  A    between atoms: _567  and  _570
REMARK  240  A    between atoms: _570  and  _571
REMARK  241  A    between atoms: _571  and  _572
REMARK  242  A    between atoms: _577  and  _579
REMARK  243  A    between atoms: _579  and  _580
REMARK  244  A    between atoms: _579  and  _582
REMARK  245  A    between atoms: _582  and  _583
REMARK  246  A    between atoms: _585  and  _587
REMARK  247  A    between atoms: _587  and  _588
REMARK  248  A    between atoms: _587  and  _590
REMARK  249  A    between atoms: _590  and  _591
REMARK  250  A    between atoms: _593  and  _595
REMARK  251  A    between atoms: _595  and  _596
REMARK  252  A    between atoms: _598  and  _600
REMARK  253  A    between atoms: _600  and  _601
REMARK  254  A    between atoms: _600  and  _603
REMARK  255  A    between atoms: _603  and  _604
REMARK  256  A    between atoms: _607  and  _609
REMARK  257  A    between atoms: _609  and  _610
REMARK  258  A    between atoms: _612  and  _614
REMARK  259  A    between atoms: _614  and  _615
REMARK  260  A    between atoms: _614  and  _617
REMARK  261  A    between atoms: _617  and  _618
REMARK  262  A    between atoms: _621  and  _623
REMARK  263  A    between atoms: _623  and  _624
REMARK  264  A    between atoms: _623  and  _626
REMARK  265  A    between atoms: _626  and  _627
REMARK  266  A    between atoms: _632  and  _634
REMARK  267  A    between atoms: _634  and  _635
REMARK  268  A    between atoms: _634  and  _637
REMARK  269  A    between atoms: _637  and  _638
REMARK  270  A    between atoms: _641  and  _643
REMARK  271  A    between atoms: _643  and  _644
REMARK  272  A    between atoms: _643  and  _646
REMARK  273  A    between atoms: _646  and  _647
REMARK  274  A    between atoms: _653  and  _655
REMARK  275  A    between atoms: _655  and  _656
REMARK  276  A    between atoms: _658  and  _660
REMARK  277  A    between atoms: _660  and  _661
REMARK  278  A    between atoms: _660  and  _663
REMARK  279  A    between atoms: _663  and  _664
REMARK                            x       y       z     vdW  Elec       q    Type
REMARK                         _______ _______ _______ _____ _____    ______ ____
ROOT
ATOM      1  CG  TRP A   1      13.345  40.179  17.693  0.00  0.00    -0.002 A 
ATOM      2  CD2 TRP A   1      13.267  39.515  18.946  0.00  0.00    +0.013 A 
ATOM      3  CE3 TRP A   1      14.084  39.586  20.046  0.00  0.00    +0.001 A 
ATOM      4  CZ3 TRP A   1      13.730  38.779  21.164  0.00  0.00    +0.000 A 
ATOM      5  CH2 TRP A   1      12.600  37.976  21.123  0.00  0.00    +0.001 A 
ATOM      6  CZ2 TRP A   1      11.787  37.968  19.978  0.00  0.00    +0.017 A 
ATOM      7  CE2 TRP A   1      12.141  38.724  18.922  0.00  0.00    +0.056 A 
ATOM      8  NE1 TRP A   1      11.545  38.858  17.752  0.00  0.00    -0.352 N 
ATOM      9  HE1 TRP A   1      10.684  38.360  17.447  0.00  0.00    +0.166 HD
ATOM     10  CD1 TRP A   1      12.264  39.780  16.994  0.00  0.00    +0.068 A 
ENDROOT
BRANCH   1  11
ATOM     11  CB  TRP A   1      14.455  41.159  17.334  0.00  0.00    +0.053 C 
BRANCH  11  12
ATOM     12  CA  TRP A   1      15.745  40.585  16.720  0.00  0.00    +0.137 C 
BRANCH  12  13
ATOM     13  N   TRP A   1      15.461  39.973  15.425  0.00  0.00    -0.239 NA
ATOM     14  H   TRP A   1      14.881  39.111  15.387  0.00  0.00    +0.142 HD
ENDBRANCH  12  13
BRANCH  12  15
ATOM     15  C   TRP A   1      16.377  39.593  17.653  0.00  0.00    +0.224 C 
ATOM     16  O   TRP A   1      16.111  38.405  17.462  0.00  0.00    -0.287 OA
ENDBRANCH  12  15
ENDBRANCH  11  12
ENDBRANCH   1  11
TORSDOF 4
REMARK  Name = ../refined-set-2016/4er1/4er1_pocket.pdb
REMARK  279 active torsions:
REMARK  status: ('A' for Active; 'I' for Inactive)
REMARK    1  A    between atoms: _1  and  _3
REMARK    2  A    between atoms: _3  and  _4
REMARK    3  A    between atoms: _3  and  _6
REMARK    4  A    between atoms: _6  and  _7
REMARK    5  A    between atoms: _10  and  _12
REMARK    6  A    between atoms: _12  and  _13
REMARK    7  A    between atoms: _12  and  _15
REMARK    8  A    between atoms: _15  and  _16
REMARK    9  A    between atoms: _19  and  _21
REMARK   10  A    between atoms: _21  and  _22
REMARK   11  A    between atoms: _21  and  _24
REMARK   12  A    between atoms: _24  and  _25
REMARK   13  A    between atoms: _28  and  _30
REMARK   14  A    between atoms: _30  and  _31
REMARK   15  A    between atoms: _30  and  _33
REMARK   16  A    between atoms: _33  and  _34
REMARK   17  A    between atoms: _37  and  _39
REMARK   18  A    between atoms: _39  and  _40
REMARK   19  A    between atoms: _39  and  _42
REMARK   20  A    between atoms: _42  and  _43
REMARK   21  A    between atoms: _46  and  _48
REMARK   22  A    between atoms: _48  and  _49
REMARK   23  A    between atoms: _52  and  _54
REMARK   24  A    between atoms: _54  and  _55
REMARK   25  A    between atoms: _54  and  _57
REMARK   26  A    between atoms: _57  and  _58
REMARK   27  A    between atoms: _63  and  _64
REMARK   28  A    between atoms: _66  and  _68
REMARK   29  A    between atoms: _68  and  _69
REMARK   30  A    between atoms: _68  and  _71
REMARK   31  A    between atoms: _71  and  _72
REMARK   32  A    between atoms: _75  and  _77
REMARK   33  A    between atoms: _77  and  _78
REMARK   34  A    between atoms: _77  and  _80
REMARK   35  A    between atoms: _80  and  _81
REMARK   36  A    between atoms: _87  and  _89
REMARK   37  A    between atoms: _89  and  _90
REMARK   38  A    between atoms: _89  and  _92
REMARK   39  A    between atoms: _92  and  _93
REMARK   40  A    between atoms: _96  and  _98
REMARK   41  A    between atoms: _98  and  _99
REMARK   42  A    between atoms: _98  and  _101
REMARK   43  A    between atoms: _101  and  _102
REMARK   44  A    between atoms: _105  and  _107
REMARK   45  A    between atoms: _107  and  _108
REMARK   46  A    between atoms: _110  and  _112
REMARK   47  A    between atoms: _112  and  _113
REMARK   48  A    between atoms: _112  and  _115
REMARK   49  A    between atoms: _115  and  _116
REMARK   50  A    between atoms: _118  and  _120
REMARK   51  A    between atoms: _120  and  _121
REMARK   52  A    between atoms: _120  and  _123
REMARK   53  A    between atoms: _123  and  _124
REMARK   54  A    between atoms: _126  and  _128
REMARK   55  A    between atoms: _128  and  _129
REMARK   56  A    between atoms: _128  and  _131
REMARK   57  A    between atoms: _131  and  _132
REMARK   58  A    between atoms: _135  and  _137
REMARK   59  A    between atoms: _137  and  _138
REMARK   60  A    between atoms: _137  and  _140
REMARK   61  A    between atoms: _140  and  _141
REMARK   62  A    between atoms: _151  and  _153
REMARK   63  A    between atoms: _153  and  _154
REMARK   64  A    between atoms: _153  and  _156
REMARK   65  A    between atoms: _156  and  _157
REMARK   66  A    between atoms: _159  and  _161
REMARK   67  A    between atoms: _161  and  _162
REMARK   68  A    between atoms: _161  and  _164
REMARK   69  A    between atoms: _164  and  _165
REMARK   70  A    between atoms: _168  and  _170
REMARK   71  A    between atoms: _170  and  _171
REMARK   72  A    between atoms: _170  and  _173
REMARK   73  A    between atoms: _173  and  _174
REMARK   74  A    between atoms: _176  and  _178
REMARK   75  A    between atoms: _178  and  _179
REMARK   76  A    between atoms: _178  and  _181
REMARK   77  A    between atoms: _181  and  _182
REMARK   78  A    between atoms: _187  and  _188
REMARK   79  A    between atoms: _190  and  _192
REMARK   80  A    between atoms: _192  and  _193
REMARK   81  A    between atoms: _195  and  _197
REMARK   82  A    between atoms: _197  and  _198
REMARK   83  A    between atoms: _197  and  _200
REMARK   84  A    between atoms: _200  and  _201
REMARK   85  A    between atoms: _204  and  _206
REMARK   86  A    between atoms: _206  and  _207
REMARK   87  A    between atoms: _209  and  _211
REMARK   88  A    between atoms: _211  and  _212
REMARK   89  A    between atoms: _211  and  _214
REMARK   90  A    between atoms: _214  and  _215
REMARK   91  A    between atoms: _217  and  _219
REMARK   92  A    between atoms: _219  and  _220
REMARK   93  A    between atoms: _219  and  _222
REMARK   94  A    between atoms: _222  and  _223
REMARK   95  A    between atoms: _225  and  _227
REMARK   96  A    between atoms: _227  and  _228
REMARK   97  A    between atoms: _227  and  _230
REMARK   98  A    between atoms: _230  and  _231
REMARK   99  A    between atoms: _233  and  _235
REMARK  100  A    between atoms: _235  and  _236
REMARK  101  A    between atoms: _235  and  _238
REMARK  102  A    between atoms: _238  and  _239
REMARK  103  A    between atoms: _241  and  _243
REMARK  104  A    between atoms: _243  and  _244
REMARK  105  A    between atoms: _243  and  _246
REMARK  106  A    between atoms: _246  and  _247
REMARK  107  A    between atoms: _249  and  _251
REMARK  108  A    between atoms: _251  and  _252
REMARK  109  A    between atoms: _251  and  _254
REMARK  110  A    between atoms: _254  and  _255
REMARK  111  A    between atoms: _261  and  _263
REMARK  112  A    between atoms: _263  and  _264
REMARK  113  A    between atoms: _263  and  _266
REMARK  114  A    between atoms: _266  and  _267
REMARK  115  A    between atoms: _270  and  _272
REMARK  116  A    between atoms: _272  and  _273
REMARK  117  A    between atoms: _272  and  _275
REMARK  118  A    between atoms: _275  and  _276
REMARK  119  A    between atoms: _276  and  _277
REMARK  120  A    between atoms: _280  and  _282
REMARK  121  A    between atoms: _282  and  _283
REMARK  122  A    between atoms: _282  and  _285
REMARK  123  A    between atoms: _285  and  _286
REMARK  124  A    between atoms: _289  and  _291
REMARK  125  A    between atoms: _291  and  _292
REMARK  126  A    between atoms: _291  and  _294
REMARK  127  A    between atoms: _294  and  _295
REMARK  128  A    between atoms: _297  and  _299
REMARK  129  A    between atoms: _299  and  _300
REMARK  130  A    between atoms: _299  and  _302
REMARK  131  A    between atoms: _302  and  _303
REMARK  132  A    between atoms: _306  and  _308
REMARK  133  A    between atoms: _308  and  _309
REMARK  134  A    between atoms: _308  and  _311
REMARK  135  A    between atoms: _311  and  _312
REMARK  136  A    between atoms: _315  and  _317
REMARK  137  A    between atoms: _317  and  _318
REMARK  138  A    between atoms: _320  and  _322
REMARK  139  A    between atoms: _322  and  _323
REMARK  140  A    between atoms: _322  and  _325
REMARK  141  A    between atoms: _325  and  _326
REMARK  142  A    between atoms: _329  and  _331
REMARK  143  A    between atoms: _331  and  _332
REMARK  144  A    between atoms: _331  and  _334
REMARK  145  A    between atoms: _334  and  _335
REMARK  146  A    between atoms: _338  and  _340
REMARK  147  A    between atoms: _340  and  _341
REMARK  148  A    between atoms: _340  and  _343
REMARK  149  A    between atoms: _343  and  _344
REMARK  150  A    between atoms: _347  and  _349
REMARK  151  A    between atoms: _349  and  _350
REMARK  152  A    between atoms: _353  and  _355
REMARK  153  A    between atoms: _355  and  _356
REMARK  154  A    between atoms: _355  and  _358
REMARK  155  A    between atoms: _358  and  _359
REMARK  156  A    between atoms: _362  and  _364
REMARK  157  A    between atoms: _364  and  _365
REMARK  158  A    between atoms: _364  and  _367
REMARK  159  A    between atoms: _367  and  _368
REMARK  160  A    between atoms: _371  and  _373
REMARK  161  A    between atoms: _373  and  _374
REMARK  162  A    between atoms: _373  and  _376
REMARK  163  A    between atoms: _376  and  _377
REMARK  164  A    between atoms: _382  and  _384
REMARK  165  A    between atoms: _384  and  _385
REMARK  166  A    between atoms: _384  and  _387
REMARK  167  A    between atoms: _387  and  _388
REMARK  168  A    between atoms: _391  and  _393
REMARK  169  A    between atoms: _393  and  _394
REMARK  170  A    between atoms: _393  and  _396
REMARK  171  A    between atoms: _396  and  _397
REMARK  172  A    between atoms: _397  and  _398
REMARK  173  A    between atoms: _403  and  _405
REMARK  174  A    between atoms: _405  and  _406
REMARK  175  A    between atoms: _408  and  _410
REMARK  176  A    between atoms: _410  and  _411
REMARK  177  A    between atoms: _410  and  _413
REMARK  178  A    between atoms: _413  and  _414
REMARK  179  A    between atoms: _420  and  _422
REMARK  180  A    between atoms: _422  and  _423
REMARK  181  A    between atoms: _425  and  _427
REMARK  182  A    between atoms: _427  and  _428
REMARK  183  A    between atoms: _427  and  _430
REMARK  184  A    between atoms: _430  and  _431
REMARK  185  A    between atoms: _434  and  _436
REMARK  186  A    between atoms: _436  and  _437
REMARK  187  A    between atoms: _440  and  _442
REMARK  188  A    between atoms: _442  and  _443
REMARK  189  A    between atoms: _442  and  _445
REMARK  190  A    between atoms: _445  and  _446
REMARK  191  A    between atoms: _449  and  _451
REMARK  192  A    between atoms: _451  and  _452
REMARK  193  A    between atoms: _451  and  _454
REMARK  194  A    between atoms: _454  and  _455
REMARK  195  A    between atoms: _458  and  _460
REMARK  196  A    between atoms: _460  and  _461
REMARK  197  A    between atoms: _463  and  _465
REMARK  198  A    between atoms: _465  and  _466
REMARK  199  A    between atoms: _465  and  _468
REMARK  200  A    between atoms: _468  and  _469
REMARK  201  A    between atoms: _472  and  _474
REMARK  202  A    between atoms: _474  and  _475
REMARK  203  A    between atoms: _474  and  _477
REMARK  204  A    between atoms: _477  and  _478
REMARK  205  A    between atoms: _481  and  _483
REMARK  206  A    between atoms: _483  and  _484
REMARK  207  A    between atoms: _483  and  _486
REMARK  208  A    between atoms: _486  and  _487
REMARK  209  A    between atoms: _490  and  _492
REMARK  210  A    between atoms: _492  and  _493
REMARK  211  A    between atoms: _492  and  _495
REMARK  212  A    between atoms: _495  and  _496
REMARK  213  A    between atoms: _499  and  _501
REMARK  214  A    between atoms: _501  and  _502
REMARK  215  A    between atoms: _501  and  _504
REMARK  216  A    between atoms: _504  and  _505
REMARK  217  A    between atoms: _510  and  _511
REMARK  218  A    between atoms: _513  and  _515
REMARK  219  A    between atoms: _515  and  _516
REMARK  220  A    between atoms: _515  and  _518
REMARK  221  A    between atoms: _521  and  _523
REMARK  222  A    between atoms: _523  and  _524
REMARK  223  A    between atoms: _526  and  _528
REMARK  224  A    between atoms: _528  and  _529
REMARK  225  A    between atoms: _528  and  _531
REMARK  226  A    between atoms: _531  and  _532
REMARK  227  A    between atoms: _538  and  _540
REMARK  228  A    between atoms: _540  and  _541
REMARK  229  A    between atoms: _543  and  _545
REMARK  230  A    between atoms: _545  and  _546
REMARK  231  A    between atoms: _545  and  _548
REMARK  232  A    between atoms: _548  and  _549
REMARK  233  A    between atoms: _555  and  _557
REMARK  234  A    between atoms: _557  and  _558
REMARK  235  A    between atoms: _560  and  _562
REMARK  236  A    between atoms: _562  and  _563
REMARK  237  A    between atoms: _565  and  _567
REMARK  238  A    between atoms: _567  and  _568
REMARK  239  A    between atoms: _567  and  _570
REMARK  240  A    between atoms: _570  and  _571
REMARK  241  A    between atoms: _571  and  _572
REMARK  242  A    between atoms: _577  and  _579
REMARK  243  A    between atoms: _579  and  _580
REMARK  244  A    between atoms: _579  and  _582
REMARK  245  A    between atoms: _582  and  _583
REMARK  246  A    between atoms: _585  and  _587
REMARK  247  A    between atoms: _587  and  _588
REMARK  248  A    between atoms: _587  and  _590
REMARK  249  A    between atoms: _590  and  _591
REMARK  250  A    between atoms: _593  and  _595
REMARK  251  A    between atoms: _595  and  _596
REMARK  252  A    between atoms: _598  and  _600
REMARK  253  A    between atoms: _600  and  _601
REMARK  254  A    between atoms: _600  and  _603
REMARK  255  A    between atoms: _603  and  _604
REMARK  256  A    between atoms: _607  and  _609
REMARK  257  A    between atoms: _609  and  _610
REMARK  258  A    between atoms: _612  and  _614
REMARK  259  A    between atoms: _614  and  _615
REMARK  260  A    between atoms: _614  and  _617
REMARK  261  A    between atoms: _617  and  _618
REMARK  262  A    between atoms: _621  and  _623
REMARK  263  A    between atoms: _623  and  _624
REMARK  264  A    between atoms: _623  and  _626
REMARK  265  A    between atoms: _626  and  _627
REMARK  266  A    between atoms: _632  and  _634
REMARK  267  A    between atoms: _634  and  _635
REMARK  268  A    between atoms: _634  and  _637
REMARK  269  A    between atoms: _637  and  _638
REMARK  270  A    between atoms: _641  and  _643
REMARK  271  A    between atoms: _643  and  _644
REMARK  272  A    between atoms: _643  and  _646
REMARK  273  A    between atoms: _646  and  _647
REMARK  274  A    between atoms: _653  and  _655
REMARK  275  A    between atoms: _655  and  _656
REMARK  276  A    between atoms: _658  and  _660
REMARK  277  A    between atoms: _660  and  _661
REMARK  278  A    between atoms: _660  and  _663
REMARK  279  A    between atoms: _663  and  _664
REMARK                            x       y       z     vdW  Elec       q    Type
REMARK                         _______ _______ _______ _____ _____    ______ ____
ROOT
ATOM      1  CA  TYR A   4       2.995  37.672  16.911  0.00  0.00    +0.153 C 
ENDROOT
BRANCH   1   3
ATOM      2  C   SER A   3       3.222  40.081  17.337  0.00  0.00    +0.243 C 
ATOM      3  N   TYR A   4       3.143  38.851  17.779  0.00  0.00    -0.297 N 
ATOM      4  H   TYR A   4       3.188  38.698  18.807  0.00  0.00    +0.150 HD
ATOM      5  O   SER A   3       2.872  40.349  16.195  0.00  0.00    -0.273 OA
BRANCH   2   6
ATOM      6  CA  SER A   3       3.584  41.161  18.342  0.00  0.00    +0.178 C 
BRANCH   6   9
ATOM      7  C   ILE A   2       5.414  42.654  17.966  0.00  0.00    +0.241 C 
ATOM      8  O   ILE A   2       5.726  42.480  19.126  0.00  0.00    -0.273 OA
ATOM      9  N   SER A   3       4.181  42.251  17.618  0.00  0.00    -0.295 N 
ATOM     10  H   SER A   3       3.669  42.717  16.842  0.00  0.00    +0.150 HD
BRANCH   7  11
ATOM     11  CA  ILE A   2       6.316  43.490  17.052  0.00  0.00    +0.148 C 
BRANCH  11  13
ATOM     12  C   SER A   1       7.000  45.785  17.464  0.00  0.00    +0.241 C 
ATOM     13  N   ILE A   2       6.869  44.542  17.924  0.00  0.00    -0.297 N 
ATOM     14  H   ILE A   2       7.156  44.314  18.897  0.00  0.00    +0.150 HD
ATOM     15  O   SER A   1       6.621  46.155  16.354  0.00  0.00    -0.274 OA
BRANCH  12  16
ATOM     16  CA  SER A   1       7.824  46.788  18.236  0.00  0.00    +0.174 C 
BRANCH  16  17
ATOM     17  N   SER A   1       8.695  47.465  17.224  0.00  0.00    -0.236 NA
ATOM     18  H   SER A   1       8.418  47.471  16.221  0.00  0.00    +0.142 HD
ENDBRANCH  16  17
BRANCH  16  19
ATOM     19  CB  SER A   1       6.874  47.840  18.782  0.00  0.00    +0.163 C 
BRANCH  19  20
ATOM     20  OG  SER A   1       5.833  47.284  19.585  0.00  0.00    -0.380 OA
ATOM     21  H   SER A   1       5.247  48.011  19.913  0.00  0.00    +0.211 HD
ENDBRANCH  19  20
ENDBRANCH  16  19
ENDBRANCH  12  16
ENDBRANCH  11  13
BRANCH  11  22
ATOM     22  CB  ILE A   2       7.318  42.610  16.356  0.00  0.00    +0.027 C 
ATOM     23  CG2 ILE A   2       8.056  41.728  17.367  0.00  0.00    +0.002 C 
BRANCH  22  24
ATOM     24  CG1 ILE A   2       6.626  41.717  15.260  0.00  0.00    +0.002 C 
ATOM     25  CD1 ILE A   2       7.731  40.950  14.529  0.00  0.00    +0.000 C 
ENDBRANCH  22  24
ENDBRANCH  11  22
ENDBRANCH   7  11
ENDBRANCH   6   9
BRANCH   6  26
ATOM     26  CB  SER A   3       2.385  41.709  19.174  0.00  0.00    +0.166 C 
BRANCH  26  27
ATOM     27  OG  SER A   3       1.522  42.115  18.080  0.00  0.00    -0.380 OA
ATOM     28  H   SER A   3       1.986  42.795  17.530  0.00  0.00    +0.211 HD
ENDBRANCH  26  27
ENDBRANCH   6  26
ENDBRANCH   2   6
ENDBRANCH   1   3
BRANCH   1  29
ATOM     29  C   TYR A   4       1.566  37.084  17.204  0.00  0.00    +0.241 C 
ATOM     30  O   TYR A   4       0.908  37.452  18.150  0.00  0.00    -0.273 OA
ATOM     31  N   GLY A   5       1.192  36.067  16.491  0.00  0.00    -0.295 N 
ATOM     32  H   GLY A   5       1.930  35.543  15.979  0.00  0.00    +0.150 HD
BRANCH  31  33
ATOM     33  CA  GLY A   5      -0.186  35.599  16.351  0.00  0.00    +0.176 C 
BRANCH  33  34
ATOM     34  C   GLY A   5      -0.553  35.004  17.665  0.00  0.00    +0.243 C 
ATOM     35  N   ASP A   6       0.427  34.466  18.359  0.00  0.00    -0.296 N 
ATOM     36  H   ASP A   6       1.374  34.473  17.929  0.00  0.00    +0.150 HD
ATOM     37  O   GLY A   5      -1.695  35.125  18.056  0.00  0.00    -0.273 OA
BRANCH  35  38
ATOM     38  CA  ASP A   6       0.297  33.858  19.687  0.00  0.00    +0.160 C 
BRANCH  38  39
ATOM     39  C   ASP A   6       0.342  34.892  20.800  0.00  0.00    +0.241 C 
ATOM     40  O   ASP A   6       0.255  34.528  21.971  0.00  0.00    -0.273 OA
ATOM     41  N   GLY A   7       0.425  36.181  20.488  0.00  0.00    -0.295 N 
ATOM     42  H   GLY A   7       0.631  36.515  19.525  0.00  0.00    +0.150 HD
BRANCH  41  43
ATOM     43  CA  GLY A   7       0.198  37.115  21.639  0.00  0.00    +0.176 C 
BRANCH  43  44
ATOM     44  C   GLY A   7       1.569  37.624  22.070  0.00  0.00    +0.243 C 
ATOM     45  O   GLY A   7       1.837  38.593  22.761  0.00  0.00    -0.273 OA
ATOM     46  N   SER A   8       2.687  37.002  21.695  0.00  0.00    -0.295 N 
ATOM     47  H   SER A   8       2.710  36.320  20.910  0.00  0.00    +0.150 HD
BRANCH  46  48
ATOM     48  CA  SER A   8       3.914  37.359  22.490  0.00  0.00    +0.178 C 
BRANCH  48  49
ATOM     49  C   SER A   8       4.475  38.550  21.724  0.00  0.00    +0.243 C 
ATOM     50  N   SER A   9       5.441  39.216  22.349  0.00  0.00    -0.296 N 
ATOM     51  H   SER A   9       5.968  38.798  23.142  0.00  0.00    +0.150 HD
ATOM     52  O   SER A   8       4.007  38.831  20.608  0.00  0.00    -0.273 OA
BRANCH  50  53
ATOM     53  CA  SER A   9       5.727  40.573  21.862  0.00  0.00    +0.166 C 
BRANCH  53  54
ATOM     54  C   SER A   9       7.135  40.989  22.261  0.00  0.00    +0.229 C 
ATOM     55  O   SER A   9       7.603  40.446  23.247  0.00  0.00    -0.286 OA
ENDBRANCH  53  54
BRANCH  53  56
ATOM     56  CB  SER A   9       4.767  41.585  22.403  0.00  0.00    +0.165 C 
BRANCH  56  57
ATOM     57  OG  SER A   9       4.796  41.933  23.820  0.00  0.00    -0.380 OA
ATOM     58  H   SER A   9       4.100  42.612  24.006  0.00  0.00    +0.211 HD
ENDBRANCH  56  57
ENDBRANCH  53  56
ENDBRANCH  50  53
ENDBRANCH  48  49
BRANCH  48  59
ATOM     59  CB  SER A   8       4.902  36.163  22.332  0.00  0.00    +0.166 C 
BRANCH  59  60
ATOM     60  OG  SER A   8       5.078  36.072  20.954  0.00  0.00    -0.380 OA
ATOM     61  H   SER A   8       4.204  35.901  20.521  0.00  0.00    +0.211 HD
ENDBRANCH  59  60
ENDBRANCH  48  59
ENDBRANCH  46  48
ENDBRANCH  43  44
ENDBRANCH  41  43
ENDBRANCH  38  39
BRANCH  38  62
ATOM     62  CB  ASP A   6       1.418  32.824  19.839  0.00  0.00    +0.143 C 
BRANCH  62  63
ATOM     63  CG  ASP A   6       2.801  33.449  20.127  0.00  0.00    +0.367 C 
ATOM     64  OD2 ASP A   6       2.964  34.666  20.258  0.00  0.00    -0.246 OA
ATOM     65  OD1 ASP A   6       3.729  32.640  20.226  0.00  0.00    -0.246 OA
ENDBRANCH  62  63
ENDBRANCH  38  62
ENDBRANCH  35  38
ENDBRANCH  33  34
ENDBRANCH  31  33
ENDBRANCH   1  29
BRANCH   1  66
ATOM     66  CB  TYR A   4       3.957  36.620  17.379  0.00  0.00    +0.055 C 
BRANCH  66  67
ATOM     67  CG  TYR A   4       5.370  37.095  16.967  0.00  0.00    -0.020 A 
ATOM     68  CD2 TYR A   4       6.122  37.661  17.987  0.00  0.00    -0.001 A 
ATOM     69  CE2 TYR A   4       7.433  38.081  17.625  0.00  0.00    +0.036 A 
ATOM     70  CZ  TYR A   4       7.925  37.962  16.332  0.00  0.00    +0.134 A 
ATOM     71  CE1 TYR A   4       7.120  37.380  15.338  0.00  0.00    +0.036 A 
ATOM     72  CD1 TYR A   4       5.793  36.919  15.664  0.00  0.00    -0.001 A 
BRANCH  70  73
ATOM     73  OH  TYR A   4       9.215  38.410  16.024  0.00  0.00    -0.506 OA
ATOM     74  HH  TYR A   4       9.162  39.107  15.323  0.00  0.00    +0.292 HD
ENDBRANCH  70  73
ENDBRANCH  66  67
ENDBRANCH   1  66
TORSDOF 33
REMARK  Name = ../refined-set-2016/4er1/4er1_pocket.pdb
REMARK  279 active torsions:
REMARK  status: ('A' for Active; 'I' for Inactive)
REMARK    1  A    between atoms: _1  and  _3
REMARK    2  A    between atoms: _3  and  _4
REMARK    3  A    between atoms: _3  and  _6
REMARK    4  A    between atoms: _6  and  _7
REMARK    5  A    between atoms: _10  and  _12
REMARK    6  A    between atoms: _12  and  _13
REMARK    7  A    between atoms: _12  and  _15
REMARK    8  A    between atoms: _15  and  _16
REMARK    9  A    between atoms: _19  and  _21
REMARK   10  A    between atoms: _21  and  _22
REMARK   11  A    between atoms: _21  and  _24
REMARK   12  A    between atoms: _24  and  _25
REMARK   13  A    between atoms: _28  and  _30
REMARK   14  A    between atoms: _30  and  _31
REMARK   15  A    between atoms: _30  and  _33
REMARK   16  A    between atoms: _33  and  _34
REMARK   17  A    between atoms: _37  and  _39
REMARK   18  A    between atoms: _39  and  _40
REMARK   19  A    between atoms: _39  and  _42
REMARK   20  A    between atoms: _42  and  _43
REMARK   21  A    between atoms: _46  and  _48
REMARK   22  A    between atoms: _48  and  _49
REMARK   23  A    between atoms: _52  and  _54
REMARK   24  A    between atoms: _54  and  _55
REMARK   25  A    between atoms: _54  and  _57
REMARK   26  A    between atoms: _57  and  _58
REMARK   27  A    between atoms: _63  and  _64
REMARK   28  A    between atoms: _66  and  _68
REMARK   29  A    between atoms: _68  and  _69
REMARK   30  A    between atoms: _68  and  _71
REMARK   31  A    between atoms: _71  and  _72
REMARK   32  A    between atoms: _75  and  _77
REMARK   33  A    between atoms: _77  and  _78
REMARK   34  A    between atoms: _77  and  _80
REMARK   35  A    between atoms: _80  and  _81
REMARK   36  A    between atoms: _87  and  _89
REMARK   37  A    between atoms: _89  and  _90
REMARK   38  A    between atoms: _89  and  _92
REMARK   39  A    between atoms: _92  and  _93
REMARK   40  A    between atoms: _96  and  _98
REMARK   41  A    between atoms: _98  and  _99
REMARK   42  A    between atoms: _98  and  _101
REMARK   43  A    between atoms: _101  and  _102
REMARK   44  A    between atoms: _105  and  _107
REMARK   45  A    between atoms: _107  and  _108
REMARK   46  A    between atoms: _110  and  _112
REMARK   47  A    between atoms: _112  and  _113
REMARK   48  A    between atoms: _112  and  _115
REMARK   49  A    between atoms: _115  and  _116
REMARK   50  A    between atoms: _118  and  _120
REMARK   51  A    between atoms: _120  and  _121
REMARK   52  A    between atoms: _120  and  _123
REMARK   53  A    between atoms: _123  and  _124
REMARK   54  A    between atoms: _126  and  _128
REMARK   55  A    between atoms: _128  and  _129
REMARK   56  A    between atoms: _128  and  _131
REMARK   57  A    between atoms: _131  and  _132
REMARK   58  A    between atoms: _135  and  _137
REMARK   59  A    between atoms: _137  and  _138
REMARK   60  A    between atoms: _137  and  _140
REMARK   61  A    between atoms: _140  and  _141
REMARK   62  A    between atoms: _151  and  _153
REMARK   63  A    between atoms: _153  and  _154
REMARK   64  A    between atoms: _153  and  _156
REMARK   65  A    between atoms: _156  and  _157
REMARK   66  A    between atoms: _159  and  _161
REMARK   67  A    between atoms: _161  and  _162
REMARK   68  A    between atoms: _161  and  _164
REMARK   69  A    between atoms: _164  and  _165
REMARK   70  A    between atoms: _168  and  _170
REMARK   71  A    between atoms: _170  and  _171
REMARK   72  A    between atoms: _170  and  _173
REMARK   73  A    between atoms: _173  and  _174
REMARK   74  A    between atoms: _176  and  _178
REMARK   75  A    between atoms: _178  and  _179
REMARK   76  A    between atoms: _178  and  _181
REMARK   77  A    between atoms: _181  and  _182
REMARK   78  A    between atoms: _187  and  _188
REMARK   79  A    between atoms: _190  and  _192
REMARK   80  A    between atoms: _192  and  _193
REMARK   81  A    between atoms: _195  and  _197
REMARK   82  A    between atoms: _197  and  _198
REMARK   83  A    between atoms: _197  and  _200
REMARK   84  A    between atoms: _200  and  _201
REMARK   85  A    between atoms: _204  and  _206
REMARK   86  A    between atoms: _206  and  _207
REMARK   87  A    between atoms: _209  and  _211
REMARK   88  A    between atoms: _211  and  _212
REMARK   89  A    between atoms: _211  and  _214
REMARK   90  A    between atoms: _214  and  _215
REMARK   91  A    between atoms: _217  and  _219
REMARK   92  A    between atoms: _219  and  _220
REMARK   93  A    between atoms: _219  and  _222
REMARK   94  A    between atoms: _222  and  _223
REMARK   95  A    between atoms: _225  and  _227
REMARK   96  A    between atoms: _227  and  _228
REMARK   97  A    between atoms: _227  and  _230
REMARK   98  A    between atoms: _230  and  _231
REMARK   99  A    between atoms: _233  and  _235
REMARK  100  A    between atoms: _235  and  _236
REMARK  101  A    between atoms: _235  and  _238
REMARK  102  A    between atoms: _238  and  _239
REMARK  103  A    between atoms: _241  and  _243
REMARK  104  A    between atoms: _243  and  _244
REMARK  105  A    between atoms: _243  and  _246
REMARK  106  A    between atoms: _246  and  _247
REMARK  107  A    between atoms: _249  and  _251
REMARK  108  A    between atoms: _251  and  _252
REMARK  109  A    between atoms: _251  and  _254
REMARK  110  A    between atoms: _254  and  _255
REMARK  111  A    between atoms: _261  and  _263
REMARK  112  A    between atoms: _263  and  _264
REMARK  113  A    between atoms: _263  and  _266
REMARK  114  A    between atoms: _266  and  _267
REMARK  115  A    between atoms: _270  and  _272
REMARK  116  A    between atoms: _272  and  _273
REMARK  117  A    between atoms: _272  and  _275
REMARK  118  A    between atoms: _275  and  _276
REMARK  119  A    between atoms: _276  and  _277
REMARK  120  A    between atoms: _280  and  _282
REMARK  121  A    between atoms: _282  and  _283
REMARK  122  A    between atoms: _282  and  _285
REMARK  123  A    between atoms: _285  and  _286
REMARK  124  A    between atoms: _289  and  _291
REMARK  125  A    between atoms: _291  and  _292
REMARK  126  A    between atoms: _291  and  _294
REMARK  127  A    between atoms: _294  and  _295
REMARK  128  A    between atoms: _297  and  _299
REMARK  129  A    between atoms: _299  and  _300
REMARK  130  A    between atoms: _299  and  _302
REMARK  131  A    between atoms: _302  and  _303
REMARK  132  A    between atoms: _306  and  _308
REMARK  133  A    between atoms: _308  and  _309
REMARK  134  A    between atoms: _308  and  _311
REMARK  135  A    between atoms: _311  and  _312
REMARK  136  A    between atoms: _315  and  _317
REMARK  137  A    between atoms: _317  and  _318
REMARK  138  A    between atoms: _320  and  _322
REMARK  139  A    between atoms: _322  and  _323
REMARK  140  A    between atoms: _322  and  _325
REMARK  141  A    between atoms: _325  and  _326
REMARK  142  A    between atoms: _329  and  _331
REMARK  143  A    between atoms: _331  and  _332
REMARK  144  A    between atoms: _331  and  _334
REMARK  145  A    between atoms: _334  and  _335
REMARK  146  A    between atoms: _338  and  _340
REMARK  147  A    between atoms: _340  and  _341
REMARK  148  A    between atoms: _340  and  _343
REMARK  149  A    between atoms: _343  and  _344
REMARK  150  A    between atoms: _347  and  _349
REMARK  151  A    between atoms: _349  and  _350
REMARK  152  A    between atoms: _353  and  _355
REMARK  153  A    between atoms: _355  and  _356
REMARK  154  A    between atoms: _355  and  _358
REMARK  155  A    between atoms: _358  and  _359
REMARK  156  A    between atoms: _362  and  _364
REMARK  157  A    between atoms: _364  and  _365
REMARK  158  A    between atoms: _364  and  _367
REMARK  159  A    between atoms: _367  and  _368
REMARK  160  A    between atoms: _371  and  _373
REMARK  161  A    between atoms: _373  and  _374
REMARK  162  A    between atoms: _373  and  _376
REMARK  163  A    between atoms: _376  and  _377
REMARK  164  A    between atoms: _382  and  _384
REMARK  165  A    between atoms: _384  and  _385
REMARK  166  A    between atoms: _384  and  _387
REMARK  167  A    between atoms: _387  and  _388
REMARK  168  A    between atoms: _391  and  _393
REMARK  169  A    between atoms: _393  and  _394
REMARK  170  A    between atoms: _393  and  _396
REMARK  171  A    between atoms: _396  and  _397
REMARK  172  A    between atoms: _397  and  _398
REMARK  173  A    between atoms: _403  and  _405
REMARK  174  A    between atoms: _405  and  _406
REMARK  175  A    between atoms: _408  and  _410
REMARK  176  A    between atoms: _410  and  _411
REMARK  177  A    between atoms: _410  and  _413
REMARK  178  A    between atoms: _413  and  _414
REMARK  179  A    between atoms: _420  and  _422
REMARK  180  A    between atoms: _422  and  _423
REMARK  181  A    between atoms: _425  and  _427
REMARK  182  A    between atoms: _427  and  _428
REMARK  183  A    between atoms: _427  and  _430
REMARK  184  A    between atoms: _430  and  _431
REMARK  185  A    between atoms: _434  and  _436
REMARK  186  A    between atoms: _436  and  _437
REMARK  187  A    between atoms: _440  and  _442
REMARK  188  A    between atoms: _442  and  _443
REMARK  189  A    between atoms: _442  and  _445
REMARK  190  A    between atoms: _445  and  _446
REMARK  191  A    between atoms: _449  and  _451
REMARK  192  A    between atoms: _451  and  _452
REMARK  193  A    between atoms: _451  and  _454
REMARK  194  A    between atoms: _454  and  _455
REMARK  195  A    between atoms: _458  and  _460
REMARK  196  A    between atoms: _460  and  _461
REMARK  197  A    between atoms: _463  and  _465
REMARK  198  A    between atoms: _465  and  _466
REMARK  199  A    between atoms: _465  and  _468
REMARK  200  A    between atoms: _468  and  _469
REMARK  201  A    between atoms: _472  and  _474
REMARK  202  A    between atoms: _474  and  _475
REMARK  203  A    between atoms: _474  and  _477
REMARK  204  A    between atoms: _477  and  _478
REMARK  205  A    between atoms: _481  and  _483
REMARK  206  A    between atoms: _483  and  _484
REMARK  207  A    between atoms: _483  and  _486
REMARK  208  A    between atoms: _486  and  _487
REMARK  209  A    between atoms: _490  and  _492
REMARK  210  A    between atoms: _492  and  _493
REMARK  211  A    between atoms: _492  and  _495
REMARK  212  A    between atoms: _495  and  _496
REMARK  213  A    between atoms: _499  and  _501
REMARK  214  A    between atoms: _501  and  _502
REMARK  215  A    between atoms: _501  and  _504
REMARK  216  A    between atoms: _504  and  _505
REMARK  217  A    between atoms: _510  and  _511
REMARK  218  A    between atoms: _513  and  _515
REMARK  219  A    between atoms: _515  and  _516
REMARK  220  A    between atoms: _515  and  _518
REMARK  221  A    between atoms: _521  and  _523
REMARK  222  A    between atoms: _523  and  _524
REMARK  223  A    between atoms: _526  and  _528
REMARK  224  A    between atoms: _528  and  _529
REMARK  225  A    between atoms: _528  and  _531
REMARK  226  A    between atoms: _531  and  _532
REMARK  227  A    between atoms: _538  and  _540
REMARK  228  A    between atoms: _540  and  _541
REMARK  229  A    between atoms: _543  and  _545
REMARK  230  A    between atoms: _545  and  _546
REMARK  231  A    between atoms: _545  and  _548
REMARK  232  A    between atoms: _548  and  _549
REMARK  233  A    between atoms: _555  and  _557
REMARK  234  A    between atoms: _557  and  _558
REMARK  235  A    between atoms: _560  and  _562
REMARK  236  A    between atoms: _562  and  _563
REMARK  237  A    between atoms: _565  and  _567
REMARK  238  A    between atoms: _567  and  _568
REMARK  239  A    between atoms: _567  and  _570
REMARK  240  A    between atoms: _570  and  _571
REMARK  241  A    between atoms: _571  and  _572
REMARK  242  A    between atoms: _577  and  _579
REMARK  243  A    between atoms: _579  and  _580
REMARK  244  A    between atoms: _579  and  _582
REMARK  245  A    between atoms: _582  and  _583
REMARK  246  A    between atoms: _585  and  _587
REMARK  247  A    between atoms: _587  and  _588
REMARK  248  A    between atoms: _587  and  _590
REMARK  249  A    between atoms: _590  and  _591
REMARK  250  A    between atoms: _593  and  _595
REMARK  251  A    between atoms: _595  and  _596
REMARK  252  A    between atoms: _598  and  _600
REMARK  253  A    between atoms: _600  and  _601
REMARK  254  A    between atoms: _600  and  _603
REMARK  255  A    between atoms: _603  and  _604
REMARK  256  A    between atoms: _607  and  _609
REMARK  257  A    between atoms: _609  and  _610
REMARK  258  A    between atoms: _612  and  _614
REMARK  259  A    between atoms: _614  and  _615
REMARK  260  A    between atoms: _614  and  _617
REMARK  261  A    between atoms: _617  and  _618
REMARK  262  A    between atoms: _621  and  _623
REMARK  263  A    between atoms: _623  and  _624
REMARK  264  A    between atoms: _623  and  _626
REMARK  265  A    between atoms: _626  and  _627
REMARK  266  A    between atoms: _632  and  _634
REMARK  267  A    between atoms: _634  and  _635
REMARK  268  A    between atoms: _634  and  _637
REMARK  269  A    between atoms: _637  and  _638
REMARK  270  A    between atoms: _641  and  _643
REMARK  271  A    between atoms: _643  and  _644
REMARK  272  A    between atoms: _643  and  _646
REMARK  273  A    between atoms: _646  and  _647
REMARK  274  A    between atoms: _653  and  _655
REMARK  275  A    between atoms: _655  and  _656
REMARK  276  A    between atoms: _658  and  _660
REMARK  277  A    between atoms: _660  and  _661
REMARK  278  A    between atoms: _660  and  _663
REMARK  279  A    between atoms: _663  and  _664
REMARK                            x       y       z     vdW  Elec       q    Type
REMARK                         _______ _______ _______ _____ _____    ______ ____
ROOT
ATOM      1  C   THR A   5      11.838  33.239  29.230  0.00  0.00    +0.243 C 
ATOM      2  O   THR A   5      12.870  32.728  29.581  0.00  0.00    -0.273 OA
ATOM      3  N   GLU A   6      10.677  32.612  29.153  0.00  0.00    -0.297 N 
ATOM      4  H   GLU A   6       9.876  33.087  28.690  0.00  0.00    +0.150 HD
ENDROOT
BRANCH   1   5
ATOM      5  CA  THR A   5      11.872  34.734  28.828  0.00  0.00    +0.176 C 
BRANCH   5   7
ATOM      6  C   PHE A   4      11.177  34.275  26.526  0.00  0.00    +0.241 C 
ATOM      7  N   THR A   5      10.962  34.929  27.703  0.00  0.00    -0.295 N 
ATOM      8  H   THR A   5      10.148  35.568  27.800  0.00  0.00    +0.150 HD
ATOM      9  O   PHE A   4      12.068  33.464  26.384  0.00  0.00    -0.273 OA
BRANCH   6  10
ATOM     10  CA  PHE A   4      10.275  34.515  25.360  0.00  0.00    +0.153 C 
BRANCH  10  13
ATOM     11  C   SER A   3       8.243  33.345  26.196  0.00  0.00    +0.243 C 
ATOM     12  O   SER A   3       8.885  32.271  26.085  0.00  0.00    -0.273 OA
ATOM     13  N   PHE A   4       8.854  34.447  25.773  0.00  0.00    -0.297 N 
ATOM     14  H   PHE A   4       8.295  35.323  25.729  0.00  0.00    +0.150 HD
BRANCH  11  15
ATOM     15  CA  SER A   3       6.783  33.418  26.585  0.00  0.00    +0.178 C 
BRANCH  15  18
ATOM     16  C   SER A   2       7.173  34.891  28.517  0.00  0.00    +0.243 C 
ATOM     17  O   SER A   2       8.046  34.132  28.911  0.00  0.00    -0.273 OA
ATOM     18  N   SER A   3       6.507  34.662  27.360  0.00  0.00    -0.295 N 
ATOM     19  H   SER A   3       5.807  35.349  27.014  0.00  0.00    +0.150 HD
BRANCH  16  20
ATOM     20  CA  SER A   2       6.976  36.207  29.280  0.00  0.00    +0.178 C 
BRANCH  20  22
ATOM     21  C   SER A   1       7.550  37.850  27.504  0.00  0.00    +0.241 C 
ATOM     22  N   SER A   2       6.634  37.280  28.310  0.00  0.00    -0.295 N 
ATOM     23  H   SER A   2       5.647  37.604  28.251  0.00  0.00    +0.150 HD
ATOM     24  O   SER A   1       8.583  37.250  27.222  0.00  0.00    -0.274 OA
BRANCH  21  25
ATOM     25  CA  SER A   1       7.139  39.139  26.853  0.00  0.00    +0.174 C 
BRANCH  25  26
ATOM     26  N   SER A   1       8.234  39.510  25.911  0.00  0.00    -0.236 NA
ATOM     27  H   SER A   1       8.221  39.302  24.892  0.00  0.00    +0.142 HD
ENDBRANCH  25  26
BRANCH  25  28
ATOM     28  CB  SER A   1       5.914  38.866  25.914  0.00  0.00    +0.163 C 
BRANCH  28  29
ATOM     29  OG  SER A   1       6.358  37.989  24.873  0.00  0.00    -0.380 OA
ATOM     30  H   SER A   1       7.092  38.422  24.369  0.00  0.00    +0.211 HD
ENDBRANCH  28  29
ENDBRANCH  25  28
ENDBRANCH  21  25
ENDBRANCH  20  22
BRANCH  20  31
ATOM     31  CB  SER A   2       5.630  35.953  30.070  0.00  0.00    +0.166 C 
BRANCH  31  32
ATOM     32  OG  SER A   2       5.668  37.078  31.046  0.00  0.00    -0.380 OA
ATOM     33  H   SER A   2       4.863  37.041  31.621  0.00  0.00    +0.211 HD
ENDBRANCH  31  32
ENDBRANCH  20  31
ENDBRANCH  16  20
ENDBRANCH  15  18
BRANCH  15  34
ATOM     34  CB  SER A   3       6.048  33.713  25.175  0.00  0.00    +0.166 C 
BRANCH  34  35
ATOM     35  OG  SER A   3       4.679  33.502  25.495  0.00  0.00    -0.380 OA
ATOM     36  H   SER A   3       4.408  34.131  26.210  0.00  0.00    +0.211 HD
ENDBRANCH  34  35
ENDBRANCH  15  34
ENDBRANCH  11  15
ENDBRANCH  10  13
BRANCH  10  37
ATOM     37  CB  PHE A   4      10.615  35.803  24.605  0.00  0.00    +0.055 C 
BRANCH  37  38
ATOM     38  CG  PHE A   4       9.932  35.912  23.245  0.00  0.00    -0.020 A 
ATOM     39  CD2 PHE A   4       9.091  36.922  22.875  0.00  0.00    -0.004 A 
ATOM     40  CE2 PHE A   4       8.463  37.105  21.620  0.00  0.00    -0.000 A 
ATOM     41  CZ  PHE A   4       8.666  36.147  20.623  0.00  0.00    -0.000 A 
ATOM     42  CE1 PHE A   4       9.545  35.131  21.006  0.00  0.00    -0.000 A 
ATOM     43  CD1 PHE A   4      10.211  34.951  22.202  0.00  0.00    -0.004 A 
ENDBRANCH  37  38
ENDBRANCH  10  37
ENDBRANCH   6  10
ENDBRANCH   5   7
BRANCH   5  44
ATOM     44  CB  THR A   5      11.233  35.526  30.013  0.00  0.00    +0.137 C 
ATOM     45  CG2 THR A   5      12.015  35.208  31.242  0.00  0.00    +0.034 C 
BRANCH  44  46
ATOM     46  OG1 THR A   5      11.285  36.908  29.703  0.00  0.00    -0.382 OA
ATOM     47  HG1 THR A   5      12.228  37.182  29.580  0.00  0.00    +0.210 HD
ENDBRANCH  44  46
ENDBRANCH   5  44
ENDBRANCH   1   5
BRANCH   3  48
ATOM     48  CA  GLU A   6      10.484  31.251  29.708  0.00  0.00    +0.149 C 
BRANCH  48  49
ATOM     49  C   GLU A   6      11.063  30.238  28.761  0.00  0.00    +0.241 C 
ATOM     50  O   GLU A   6      11.069  29.038  29.084  0.00  0.00    -0.273 OA
ATOM     51  N   ASP A   7      11.469  30.615  27.554  0.00  0.00    -0.297 N 
ATOM     52  H   ASP A   7      11.402  31.590  27.199  0.00  0.00    +0.150 HD
BRANCH  51  53
ATOM     53  CA  ASP A   7      12.033  29.480  26.764  0.00  0.00    +0.160 C 
BRANCH  53  54
ATOM     54  C   ASP A   7      13.516  29.770  26.567  0.00  0.00    +0.241 C 
ATOM     55  N   SER A   8      14.339  28.906  27.080  0.00  0.00    -0.295 N 
ATOM     56  H   SER A   8      14.014  27.975  27.411  0.00  0.00    +0.150 HD
ATOM     57  O   ASP A   7      13.823  30.580  25.691  0.00  0.00    -0.273 OA
BRANCH  55  58
ATOM     58  CA  SER A   8      15.768  29.309  27.172  0.00  0.00    +0.178 C 
BRANCH  58  59
ATOM     59  C   SER A   8      16.436  28.961  25.888  0.00  0.00    +0.243 C 
ATOM     60  O   SER A   8      17.626  29.239  25.701  0.00  0.00    -0.273 OA
ATOM     61  N   THR A   9      15.726  28.262  24.985  0.00  0.00    -0.295 N 
ATOM     62  H   THR A   9      14.696  28.142  25.057  0.00  0.00    +0.150 HD
BRANCH  61  63
ATOM     63  CA  THR A   9      16.522  27.675  23.878  0.00  0.00    +0.176 C 
BRANCH  63  64
ATOM     64  C   THR A   9      16.555  28.654  22.680  0.00  0.00    +0.243 C 
ATOM     65  N   ILE A  10      15.764  29.700  22.669  0.00  0.00    -0.298 N 
ATOM     66  H   ILE A  10      15.222  29.956  23.518  0.00  0.00    +0.150 HD
ATOM     67  O   THR A   9      17.372  28.510  21.751  0.00  0.00    -0.273 OA
BRANCH  65  68
ATOM     68  CA  ILE A  10      15.648  30.527  21.415  0.00  0.00    +0.137 C 
BRANCH  68  69
ATOM     69  CB  ILE A  10      14.115  30.658  21.167  0.00  0.00    +0.026 C 
ATOM     70  CG2 ILE A  10      13.863  31.796  20.156  0.00  0.00    +0.002 C 
BRANCH  69  71
ATOM     71  CG1 ILE A  10      13.653  29.307  20.503  0.00  0.00    +0.002 C 
ATOM     72  CD1 ILE A  10      12.104  29.214  20.374  0.00  0.00    +0.000 C 
ENDBRANCH  69  71
ENDBRANCH  68  69
BRANCH  68  73
ATOM     73  C   ILE A  10      16.130  31.944  21.863  0.00  0.00    +0.227 C 
ATOM     74  O   ILE A  10      15.623  32.609  22.797  0.00  0.00    -0.286 OA
ENDBRANCH  68  73
ENDBRANCH  65  68
ENDBRANCH  63  64
BRANCH  63  75
ATOM     75  CB  THR A   9      15.834  26.377  23.325  0.00  0.00    +0.137 C 
ATOM     76  CG2 THR A   9      15.870  25.361  24.403  0.00  0.00    +0.034 C 
BRANCH  75  77
ATOM     77  OG1 THR A   9      14.481  26.664  23.037  0.00  0.00    -0.382 OA
ATOM     78  HG1 THR A   9      14.024  26.959  23.864  0.00  0.00    +0.210 HD
ENDBRANCH  75  77
ENDBRANCH  63  75
ENDBRANCH  61  63
ENDBRANCH  58  59
BRANCH  58  79
ATOM     79  CB  SER A   8      16.260  28.430  28.383  0.00  0.00    +0.166 C 
BRANCH  79  80
ATOM     80  OG  SER A   8      15.981  27.056  28.217  0.00  0.00    -0.380 OA
ATOM     81  H   SER A   8      15.003  26.927  28.129  0.00  0.00    +0.211 HD
ENDBRANCH  79  80
ENDBRANCH  58  79
ENDBRANCH  55  58
ENDBRANCH  53  54
BRANCH  53  82
ATOM     82  CB  ASP A   7      11.538  29.736  25.272  0.00  0.00    +0.143 C 
BRANCH  82  83
ATOM     83  CG  ASP A   7      11.507  28.387  24.549  0.00  0.00    +0.367 C 
ATOM     84  OD2 ASP A   7      10.440  27.793  24.322  0.00  0.00    -0.246 OA
ATOM     85  OD1 ASP A   7      12.581  27.854  24.270  0.00  0.00    -0.246 OA
ENDBRANCH  82  83
ENDBRANCH  53  82
ENDBRANCH  51  53
ENDBRANCH  48  49
BRANCH  48  86
ATOM     86  CB  GLU A   6       8.948  31.023  29.633  0.00  0.00    +0.041 C 
BRANCH  86  87
ATOM     87  CG  GLU A   6       8.392  31.691  30.873  0.00  0.00    +0.116 C 
BRANCH  87  88
ATOM     88  CD  GLU A   6       6.891  31.821  30.915  0.00  0.00    +0.365 C 
ATOM     89  OE2 GLU A   6       6.501  32.479  31.901  0.00  0.00    -0.246 OA
ATOM     90  OE1 GLU A   6       6.140  31.360  30.048  0.00  0.00    -0.246 OA
ENDBRANCH  87  88
ENDBRANCH  86  87
ENDBRANCH  48  86
ENDBRANCH   3  48
TORSDOF 41
REMARK  Name = ../refined-set-2016/4er1/4er1_pocket.pdb
REMARK  279 active torsions:
REMARK  status: ('A' for Active; 'I' for Inactive)
REMARK    1  A    between atoms: _1  and  _3
REMARK    2  A    between atoms: _3  and  _4
REMARK    3  A    between atoms: _3  and  _6
REMARK    4  A    between atoms: _6  and  _7
REMARK    5  A    between atoms: _10  and  _12
REMARK    6  A    between atoms: _12  and  _13
REMARK    7  A    between atoms: _12  and  _15
REMARK    8  A    between atoms: _15  and  _16
REMARK    9  A    between atoms: _19  and  _21
REMARK   10  A    between atoms: _21  and  _22
REMARK   11  A    between atoms: _21  and  _24
REMARK   12  A    between atoms: _24  and  _25
REMARK   13  A    between atoms: _28  and  _30
REMARK   14  A    between atoms: _30  and  _31
REMARK   15  A    between atoms: _30  and  _33
REMARK   16  A    between atoms: _33  and  _34
REMARK   17  A    between atoms: _37  and  _39
REMARK   18  A    between atoms: _39  and  _40
REMARK   19  A    between atoms: _39  and  _42
REMARK   20  A    between atoms: _42  and  _43
REMARK   21  A    between atoms: _46  and  _48
REMARK   22  A    between atoms: _48  and  _49
REMARK   23  A    between atoms: _52  and  _54
REMARK   24  A    between atoms: _54  and  _55
REMARK   25  A    between atoms: _54  and  _57
REMARK   26  A    between atoms: _57  and  _58
REMARK   27  A    between atoms: _63  and  _64
REMARK   28  A    between atoms: _66  and  _68
REMARK   29  A    between atoms: _68  and  _69
REMARK   30  A    between atoms: _68  and  _71
REMARK   31  A    between atoms: _71  and  _72
REMARK   32  A    between atoms: _75  and  _77
REMARK   33  A    between atoms: _77  and  _78
REMARK   34  A    between atoms: _77  and  _80
REMARK   35  A    between atoms: _80  and  _81
REMARK   36  A    between atoms: _87  and  _89
REMARK   37  A    between atoms: _89  and  _90
REMARK   38  A    between atoms: _89  and  _92
REMARK   39  A    between atoms: _92  and  _93
REMARK   40  A    between atoms: _96  and  _98
REMARK   41  A    between atoms: _98  and  _99
REMARK   42  A    between atoms: _98  and  _101
REMARK   43  A    between atoms: _101  and  _102
REMARK   44  A    between atoms: _105  and  _107
REMARK   45  A    between atoms: _107  and  _108
REMARK   46  A    between atoms: _110  and  _112
REMARK   47  A    between atoms: _112  and  _113
REMARK   48  A    between atoms: _112  and  _115
REMARK   49  A    between atoms: _115  and  _116
REMARK   50  A    between atoms: _118  and  _120
REMARK   51  A    between atoms: _120  and  _121
REMARK   52  A    between atoms: _120  and  _123
REMARK   53  A    between atoms: _123  and  _124
REMARK   54  A    between atoms: _126  and  _128
REMARK   55  A    between atoms: _128  and  _129
REMARK   56  A    between atoms: _128  and  _131
REMARK   57  A    between atoms: _131  and  _132
REMARK   58  A    between atoms: _135  and  _137
REMARK   59  A    between atoms: _137  and  _138
REMARK   60  A    between atoms: _137  and  _140
REMARK   61  A    between atoms: _140  and  _141
REMARK   62  A    between atoms: _151  and  _153
REMARK   63  A    between atoms: _153  and  _154
REMARK   64  A    between atoms: _153  and  _156
REMARK   65  A    between atoms: _156  and  _157
REMARK   66  A    between atoms: _159  and  _161
REMARK   67  A    between atoms: _161  and  _162
REMARK   68  A    between atoms: _161  and  _164
REMARK   69  A    between atoms: _164  and  _165
REMARK   70  A    between atoms: _168  and  _170
REMARK   71  A    between atoms: _170  and  _171
REMARK   72  A    between atoms: _170  and  _173
REMARK   73  A    between atoms: _173  and  _174
REMARK   74  A    between atoms: _176  and  _178
REMARK   75  A    between atoms: _178  and  _179
REMARK   76  A    between atoms: _178  and  _181
REMARK   77  A    between atoms: _181  and  _182
REMARK   78  A    between atoms: _187  and  _188
REMARK   79  A    between atoms: _190  and  _192
REMARK   80  A    between atoms: _192  and  _193
REMARK   81  A    between atoms: _195  and  _197
REMARK   82  A    between atoms: _197  and  _198
REMARK   83  A    between atoms: _197  and  _200
REMARK   84  A    between atoms: _200  and  _201
REMARK   85  A    between atoms: _204  and  _206
REMARK   86  A    between atoms: _206  and  _207
REMARK   87  A    between atoms: _209  and  _211
REMARK   88  A    between atoms: _211  and  _212
REMARK   89  A    between atoms: _211  and  _214
REMARK   90  A    between atoms: _214  and  _215
REMARK   91  A    between atoms: _217  and  _219
REMARK   92  A    between atoms: _219  and  _220
REMARK   93  A    between atoms: _219  and  _222
REMARK   94  A    between atoms: _222  and  _223
REMARK   95  A    between atoms: _225  and  _227
REMARK   96  A    between atoms: _227  and  _228
REMARK   97  A    between atoms: _227  and  _230
REMARK   98  A    between atoms: _230  and  _231
REMARK   99  A    between atoms: _233  and  _235
REMARK  100  A    between atoms: _235  and  _236
REMARK  101  A    between atoms: _235  and  _238
REMARK  102  A    between atoms: _238  and  _239
REMARK  103  A    between atoms: _241  and  _243
REMARK  104  A    between atoms: _243  and  _244
REMARK  105  A    between atoms: _243  and  _246
REMARK  106  A    between atoms: _246  and  _247
REMARK  107  A    between atoms: _249  and  _251
REMARK  108  A    between atoms: _251  and  _252
REMARK  109  A    between atoms: _251  and  _254
REMARK  110  A    between atoms: _254  and  _255
REMARK  111  A    between atoms: _261  and  _263
REMARK  112  A    between atoms: _263  and  _264
REMARK  113  A    between atoms: _263  and  _266
REMARK  114  A    between atoms: _266  and  _267
REMARK  115  A    between atoms: _270  and  _272
REMARK  116  A    between atoms: _272  and  _273
REMARK  117  A    between atoms: _272  and  _275
REMARK  118  A    between atoms: _275  and  _276
REMARK  119  A    between atoms: _276  and  _277
REMARK  120  A    between atoms: _280  and  _282
REMARK  121  A    between atoms: _282  and  _283
REMARK  122  A    between atoms: _282  and  _285
REMARK  123  A    between atoms: _285  and  _286
REMARK  124  A    between atoms: _289  and  _291
REMARK  125  A    between atoms: _291  and  _292
REMARK  126  A    between atoms: _291  and  _294
REMARK  127  A    between atoms: _294  and  _295
REMARK  128  A    between atoms: _297  and  _299
REMARK  129  A    between atoms: _299  and  _300
REMARK  130  A    between atoms: _299  and  _302
REMARK  131  A    between atoms: _302  and  _303
REMARK  132  A    between atoms: _306  and  _308
REMARK  133  A    between atoms: _308  and  _309
REMARK  134  A    between atoms: _308  and  _311
REMARK  135  A    between atoms: _311  and  _312
REMARK  136  A    between atoms: _315  and  _317
REMARK  137  A    between atoms: _317  and  _318
REMARK  138  A    between atoms: _320  and  _322
REMARK  139  A    between atoms: _322  and  _323
REMARK  140  A    between atoms: _322  and  _325
REMARK  141  A    between atoms: _325  and  _326
REMARK  142  A    between atoms: _329  and  _331
REMARK  143  A    between atoms: _331  and  _332
REMARK  144  A    between atoms: _331  and  _334
REMARK  145  A    between atoms: _334  and  _335
REMARK  146  A    between atoms: _338  and  _340
REMARK  147  A    between atoms: _340  and  _341
REMARK  148  A    between atoms: _340  and  _343
REMARK  149  A    between atoms: _343  and  _344
REMARK  150  A    between atoms: _347  and  _349
REMARK  151  A    between atoms: _349  and  _350
REMARK  152  A    between atoms: _353  and  _355
REMARK  153  A    between atoms: _355  and  _356
REMARK  154  A    between atoms: _355  and  _358
REMARK  155  A    between atoms: _358  and  _359
REMARK  156  A    between atoms: _362  and  _364
REMARK  157  A    between atoms: _364  and  _365
REMARK  158  A    between atoms: _364  and  _367
REMARK  159  A    between atoms: _367  and  _368
REMARK  160  A    between atoms: _371  and  _373
REMARK  161  A    between atoms: _373  and  _374
REMARK  162  A    between atoms: _373  and  _376
REMARK  163  A    between atoms: _376  and  _377
REMARK  164  A    between atoms: _382  and  _384
REMARK  165  A    between atoms: _384  and  _385
REMARK  166  A    between atoms: _384  and  _387
REMARK  167  A    between atoms: _387  and  _388
REMARK  168  A    between atoms: _391  and  _393
REMARK  169  A    between atoms: _393  and  _394
REMARK  170  A    between atoms: _393  and  _396
REMARK  171  A    between atoms: _396  and  _397
REMARK  172  A    between atoms: _397  and  _398
REMARK  173  A    between atoms: _403  and  _405
REMARK  174  A    between atoms: _405  and  _406
REMARK  175  A    between atoms: _408  and  _410
REMARK  176  A    between atoms: _410  and  _411
REMARK  177  A    between atoms: _410  and  _413
REMARK  178  A    between atoms: _413  and  _414
REMARK  179  A    between atoms: _420  and  _422
REMARK  180  A    between atoms: _422  and  _423
REMARK  181  A    between atoms: _425  and  _427
REMARK  182  A    between atoms: _427  and  _428
REMARK  183  A    between atoms: _427  and  _430
REMARK  184  A    between atoms: _430  and  _431
REMARK  185  A    between atoms: _434  and  _436
REMARK  186  A    between atoms: _436  and  _437
REMARK  187  A    between atoms: _440  and  _442
REMARK  188  A    between atoms: _442  and  _443
REMARK  189  A    between atoms: _442  and  _445
REMARK  190  A    between atoms: _445  and  _446
REMARK  191  A    between atoms: _449  and  _451
REMARK  192  A    between atoms: _451  and  _452
REMARK  193  A    between atoms: _451  and  _454
REMARK  194  A    between atoms: _454  and  _455
REMARK  195  A    between atoms: _458  and  _460
REMARK  196  A    between atoms: _460  and  _461
REMARK  197  A    between atoms: _463  and  _465
REMARK  198  A    between atoms: _465  and  _466
REMARK  199  A    between atoms: _465  and  _468
REMARK  200  A    between atoms: _468  and  _469
REMARK  201  A    between atoms: _472  and  _474
REMARK  202  A    between atoms: _474  and  _475
REMARK  203  A    between atoms: _474  and  _477
REMARK  204  A    between atoms: _477  and  _478
REMARK  205  A    between atoms: _481  and  _483
REMARK  206  A    between atoms: _483  and  _484
REMARK  207  A    between atoms: _483  and  _486
REMARK  208  A    between atoms: _486  and  _487
REMARK  209  A    between atoms: _490  and  _492
REMARK  210  A    between atoms: _492  and  _493
REMARK  211  A    between atoms: _492  and  _495
REMARK  212  A    between atoms: _495  and  _496
REMARK  213  A    between atoms: _499  and  _501
REMARK  214  A    between atoms: _501  and  _502
REMARK  215  A    between atoms: _501  and  _504
REMARK  216  A    between atoms: _504  and  _505
REMARK  217  A    between atoms: _510  and  _511
REMARK  218  A    between atoms: _513  and  _515
REMARK  219  A    between atoms: _515  and  _516
REMARK  220  A    between atoms: _515  and  _518
REMARK  221  A    between atoms: _521  and  _523
REMARK  222  A    between atoms: _523  and  _524
REMARK  223  A    between atoms: _526  and  _528
REMARK  224  A    between atoms: _528  and  _529
REMARK  225  A    between atoms: _528  and  _531
REMARK  226  A    between atoms: _531  and  _532
REMARK  227  A    between atoms: _538  and  _540
REMARK  228  A    between atoms: _540  and  _541
REMARK  229  A    between atoms: _543  and  _545
REMARK  230  A    between atoms: _545  and  _546
REMARK  231  A    between atoms: _545  and  _548
REMARK  232  A    between atoms: _548  and  _549
REMARK  233  A    between atoms: _555  and  _557
REMARK  234  A    between atoms: _557  and  _558
REMARK  235  A    between atoms: _560  and  _562
REMARK  236  A    between atoms: _562  and  _563
REMARK  237  A    between atoms: _565  and  _567
REMARK  238  A    between atoms: _567  and  _568
REMARK  239  A    between atoms: _567  and  _570
REMARK  240  A    between atoms: _570  and  _571
REMARK  241  A    between atoms: _571  and  _572
REMARK  242  A    between atoms: _577  and  _579
REMARK  243  A    between atoms: _579  and  _580
REMARK  244  A    between atoms: _579  and  _582
REMARK  245  A    between atoms: _582  and  _583
REMARK  246  A    between atoms: _585  and  _587
REMARK  247  A    between atoms: _587  and  _588
REMARK  248  A    between atoms: _587  and  _590
REMARK  249  A    between atoms: _590  and  _591
REMARK  250  A    between atoms: _593  and  _595
REMARK  251  A    between atoms: _595  and  _596
REMARK  252  A    between atoms: _598  and  _600
REMARK  253  A    between atoms: _600  and  _601
REMARK  254  A    between atoms: _600  and  _603
REMARK  255  A    between atoms: _603  and  _604
REMARK  256  A    between atoms: _607  and  _609
REMARK  257  A    between atoms: _609  and  _610
REMARK  258  A    between atoms: _612  and  _614
REMARK  259  A    between atoms: _614  and  _615
REMARK  260  A    between atoms: _614  and  _617
REMARK  261  A    between atoms: _617  and  _618
REMARK  262  A    between atoms: _621  and  _623
REMARK  263  A    between atoms: _623  and  _624
REMARK  264  A    between atoms: _623  and  _626
REMARK  265  A    between atoms: _626  and  _627
REMARK  266  A    between atoms: _632  and  _634
REMARK  267  A    between atoms: _634  and  _635
REMARK  268  A    between atoms: _634  and  _637
REMARK  269  A    between atoms: _637  and  _638
REMARK  270  A    between atoms: _641  and  _643
REMARK  271  A    between atoms: _643  and  _644
REMARK  272  A    between atoms: _643  and  _646
REMARK  273  A    between atoms: _646  and  _647
REMARK  274  A    between atoms: _653  and  _655
REMARK  275  A    between atoms: _655  and  _656
REMARK  276  A    between atoms: _658  and  _660
REMARK  277  A    between atoms: _660  and  _661
REMARK  278  A    between atoms: _660  and  _663
REMARK  279  A    between atoms: _663  and  _664
REMARK                            x       y       z     vdW  Elec       q    Type
REMARK                         _______ _______ _______ _____ _____    ______ ____
ROOT
ATOM      1  CA  LEU A   2      14.104  35.338  15.587  0.00  0.00    +0.149 C 
ENDROOT
BRANCH   1   4
ATOM      2  C   GLY A   1      15.197  34.983  17.769  0.00  0.00    +0.240 C 
ATOM      3  O   GLY A   1      15.158  33.756  17.626  0.00  0.00    -0.274 OA
ATOM      4  N   LEU A   2      14.930  35.712  16.749  0.00  0.00    -0.297 N 
ATOM      5  H   LEU A   2      15.339  36.668  16.740  0.00  0.00    +0.150 HD
BRANCH   2   6
ATOM      6  CA  GLY A   1      15.666  35.591  19.070  0.00  0.00    +0.169 C 
BRANCH   6   7
ATOM      7  N   GLY A   1      16.405  34.431  19.738  0.00  0.00    -0.236 NA
ATOM      8  H   GLY A   1      16.220  33.436  19.497  0.00  0.00    +0.142 HD
ENDBRANCH   6   7
ENDBRANCH   2   6
ENDBRANCH   1   4
BRANCH   1   9
ATOM      9  C   LEU A   2      14.781  35.913  14.356  0.00  0.00    +0.241 C 
ATOM     10  O   LEU A   2      15.288  37.031  14.492  0.00  0.00    -0.273 OA
ATOM     11  N   LEU A   3      14.805  35.125  13.285  0.00  0.00    -0.298 N 
ATOM     12  H   LEU A   3      14.497  34.132  13.312  0.00  0.00    +0.150 HD
BRANCH  11  13
ATOM     13  CA  LEU A   3      15.320  35.793  12.014  0.00  0.00    +0.137 C 
BRANCH  13  14
ATOM     14  C   LEU A   3      14.171  35.688  10.982  0.00  0.00    +0.227 C 
ATOM     15  O   LEU A   3      13.760  34.518  10.690  0.00  0.00    -0.286 OA
ENDBRANCH  13  14
BRANCH  13  16
ATOM     16  CB  LEU A   3      16.488  34.864  11.622  0.00  0.00    +0.028 C 
BRANCH  16  17
ATOM     17  CG  LEU A   3      17.222  35.568  10.412  0.00  0.00    +0.002 C 
ATOM     18  CD2 LEU A   3      18.689  35.353  10.545  0.00  0.00    +0.000 C 
ATOM     19  CD1 LEU A   3      16.607  34.873   9.162  0.00  0.00    +0.000 C 
ENDBRANCH  16  17
ENDBRANCH  13  16
ENDBRANCH  11  13
ENDBRANCH   1   9
BRANCH   1  20
ATOM     20  CB  LEU A   2      12.682  35.895  15.678  0.00  0.00    +0.029 C 
BRANCH  20  21
ATOM     21  CG  LEU A   2      11.637  34.969  16.244  0.00  0.00    +0.002 C 
ATOM     22  CD2 LEU A   2      11.683  34.476  17.650  0.00  0.00    +0.000 C 
ATOM     23  CD1 LEU A   2      10.337  34.879  15.473  0.00  0.00    +0.000 C 
ENDBRANCH  20  21
ENDBRANCH   1  20
TORSDOF 10
REMARK  Name = ../refined-set-2016/4er1/4er1_pocket.pdb
REMARK  279 active torsions:
REMARK  status: ('A' for Active; 'I' for Inactive)
REMARK    1  A    between atoms: _1  and  _3
REMARK    2  A    between atoms: _3  and  _4
REMARK    3  A    between atoms: _3  and  _6
REMARK    4  A    between atoms: _6  and  _7
REMARK    5  A    between atoms: _10  and  _12
REMARK    6  A    between atoms: _12  and  _13
REMARK    7  A    between atoms: _12  and  _15
REMARK    8  A    between atoms: _15  and  _16
REMARK    9  A    between atoms: _19  and  _21
REMARK   10  A    between atoms: _21  and  _22
REMARK   11  A    between atoms: _21  and  _24
REMARK   12  A    between atoms: _24  and  _25
REMARK   13  A    between atoms: _28  and  _30
REMARK   14  A    between atoms: _30  and  _31
REMARK   15  A    between atoms: _30  and  _33
REMARK   16  A    between atoms: _33  and  _34
REMARK   17  A    between atoms: _37  and  _39
REMARK   18  A    between atoms: _39  and  _40
REMARK   19  A    between atoms: _39  and  _42
REMARK   20  A    between atoms: _42  and  _43
REMARK   21  A    between atoms: _46  and  _48
REMARK   22  A    between atoms: _48  and  _49
REMARK   23  A    between atoms: _52  and  _54
REMARK   24  A    between atoms: _54  and  _55
REMARK   25  A    between atoms: _54  and  _57
REMARK   26  A    between atoms: _57  and  _58
REMARK   27  A    between atoms: _63  and  _64
REMARK   28  A    between atoms: _66  and  _68
REMARK   29  A    between atoms: _68  and  _69
REMARK   30  A    between atoms: _68  and  _71
REMARK   31  A    between atoms: _71  and  _72
REMARK   32  A    between atoms: _75  and  _77
REMARK   33  A    between atoms: _77  and  _78
REMARK   34  A    between atoms: _77  and  _80
REMARK   35  A    between atoms: _80  and  _81
REMARK   36  A    between atoms: _87  and  _89
REMARK   37  A    between atoms: _89  and  _90
REMARK   38  A    between atoms: _89  and  _92
REMARK   39  A    between atoms: _92  and  _93
REMARK   40  A    between atoms: _96  and  _98
REMARK   41  A    between atoms: _98  and  _99
REMARK   42  A    between atoms: _98  and  _101
REMARK   43  A    between atoms: _101  and  _102
REMARK   44  A    between atoms: _105  and  _107
REMARK   45  A    between atoms: _107  and  _108
REMARK   46  A    between atoms: _110  and  _112
REMARK   47  A    between atoms: _112  and  _113
REMARK   48  A    between atoms: _112  and  _115
REMARK   49  A    between atoms: _115  and  _116
REMARK   50  A    between atoms: _118  and  _120
REMARK   51  A    between atoms: _120  and  _121
REMARK   52  A    between atoms: _120  and  _123
REMARK   53  A    between atoms: _123  and  _124
REMARK   54  A    between atoms: _126  and  _128
REMARK   55  A    between atoms: _128  and  _129
REMARK   56  A    between atoms: _128  and  _131
REMARK   57  A    between atoms: _131  and  _132
REMARK   58  A    between atoms: _135  and  _137
REMARK   59  A    between atoms: _137  and  _138
REMARK   60  A    between atoms: _137  and  _140
REMARK   61  A    between atoms: _140  and  _141
REMARK   62  A    between atoms: _151  and  _153
REMARK   63  A    between atoms: _153  and  _154
REMARK   64  A    between atoms: _153  and  _156
REMARK   65  A    between atoms: _156  and  _157
REMARK   66  A    between atoms: _159  and  _161
REMARK   67  A    between atoms: _161  and  _162
REMARK   68  A    between atoms: _161  and  _164
REMARK   69  A    between atoms: _164  and  _165
REMARK   70  A    between atoms: _168  and  _170
REMARK   71  A    between atoms: _170  and  _171
REMARK   72  A    between atoms: _170  and  _173
REMARK   73  A    between atoms: _173  and  _174
REMARK   74  A    between atoms: _176  and  _178
REMARK   75  A    between atoms: _178  and  _179
REMARK   76  A    between atoms: _178  and  _181
REMARK   77  A    between atoms: _181  and  _182
REMARK   78  A    between atoms: _187  and  _188
REMARK   79  A    between atoms: _190  and  _192
REMARK   80  A    between atoms: _192  and  _193
REMARK   81  A    between atoms: _195  and  _197
REMARK   82  A    between atoms: _197  and  _198
REMARK   83  A    between atoms: _197  and  _200
REMARK   84  A    between atoms: _200  and  _201
REMARK   85  A    between atoms: _204  and  _206
REMARK   86  A    between atoms: _206  and  _207
REMARK   87  A    between atoms: _209  and  _211
REMARK   88  A    between atoms: _211  and  _212
REMARK   89  A    between atoms: _211  and  _214
REMARK   90  A    between atoms: _214  and  _215
REMARK   91  A    between atoms: _217  and  _219
REMARK   92  A    between atoms: _219  and  _220
REMARK   93  A    between atoms: _219  and  _222
REMARK   94  A    between atoms: _222  and  _223
REMARK   95  A    between atoms: _225  and  _227
REMARK   96  A    between atoms: _227  and  _228
REMARK   97  A    between atoms: _227  and  _230
REMARK   98  A    between atoms: _230  and  _231
REMARK   99  A    between atoms: _233  and  _235
REMARK  100  A    between atoms: _235  and  _236
REMARK  101  A    between atoms: _235  and  _238
REMARK  102  A    between atoms: _238  and  _239
REMARK  103  A    between atoms: _241  and  _243
REMARK  104  A    between atoms: _243  and  _244
REMARK  105  A    between atoms: _243  and  _246
REMARK  106  A    between atoms: _246  and  _247
REMARK  107  A    between atoms: _249  and  _251
REMARK  108  A    between atoms: _251  and  _252
REMARK  109  A    between atoms: _251  and  _254
REMARK  110  A    between atoms: _254  and  _255
REMARK  111  A    between atoms: _261  and  _263
REMARK  112  A    between atoms: _263  and  _264
REMARK  113  A    between atoms: _263  and  _266
REMARK  114  A    between atoms: _266  and  _267
REMARK  115  A    between atoms: _270  and  _272
REMARK  116  A    between atoms: _272  and  _273
REMARK  117  A    between atoms: _272  and  _275
REMARK  118  A    between atoms: _275  and  _276
REMARK  119  A    between atoms: _276  and  _277
REMARK  120  A    between atoms: _280  and  _282
REMARK  121  A    between atoms: _282  and  _283
REMARK  122  A    between atoms: _282  and  _285
REMARK  123  A    between atoms: _285  and  _286
REMARK  124  A    between atoms: _289  and  _291
REMARK  125  A    between atoms: _291  and  _292
REMARK  126  A    between atoms: _291  and  _294
REMARK  127  A    between atoms: _294  and  _295
REMARK  128  A    between atoms: _297  and  _299
REMARK  129  A    between atoms: _299  and  _300
REMARK  130  A    between atoms: _299  and  _302
REMARK  131  A    between atoms: _302  and  _303
REMARK  132  A    between atoms: _306  and  _308
REMARK  133  A    between atoms: _308  and  _309
REMARK  134  A    between atoms: _308  and  _311
REMARK  135  A    between atoms: _311  and  _312
REMARK  136  A    between atoms: _315  and  _317
REMARK  137  A    between atoms: _317  and  _318
REMARK  138  A    between atoms: _320  and  _322
REMARK  139  A    between atoms: _322  and  _323
REMARK  140  A    between atoms: _322  and  _325
REMARK  141  A    between atoms: _325  and  _326
REMARK  142  A    between atoms: _329  and  _331
REMARK  143  A    between atoms: _331  and  _332
REMARK  144  A    between atoms: _331  and  _334
REMARK  145  A    between atoms: _334  and  _335
REMARK  146  A    between atoms: _338  and  _340
REMARK  147  A    between atoms: _340  and  _341
REMARK  148  A    between atoms: _340  and  _343
REMARK  149  A    between atoms: _343  and  _344
REMARK  150  A    between atoms: _347  and  _349
REMARK  151  A    between atoms: _349  and  _350
REMARK  152  A    between atoms: _353  and  _355
REMARK  153  A    between atoms: _355  and  _356
REMARK  154  A    between atoms: _355  and  _358
REMARK  155  A    between atoms: _358  and  _359
REMARK  156  A    between atoms: _362  and  _364
REMARK  157  A    between atoms: _364  and  _365
REMARK  158  A    between atoms: _364  and  _367
REMARK  159  A    between atoms: _367  and  _368
REMARK  160  A    between atoms: _371  and  _373
REMARK  161  A    between atoms: _373  and  _374
REMARK  162  A    between atoms: _373  and  _376
REMARK  163  A    between atoms: _376  and  _377
REMARK  164  A    between atoms: _382  and  _384
REMARK  165  A    between atoms: _384  and  _385
REMARK  166  A    between atoms: _384  and  _387
REMARK  167  A    between atoms: _387  and  _388
REMARK  168  A    between atoms: _391  and  _393
REMARK  169  A    between atoms: _393  and  _394
REMARK  170  A    between atoms: _393  and  _396
REMARK  171  A    between atoms: _396  and  _397
REMARK  172  A    between atoms: _397  and  _398
REMARK  173  A    between atoms: _403  and  _405
REMARK  174  A    between atoms: _405  and  _406
REMARK  175  A    between atoms: _408  and  _410
REMARK  176  A    between atoms: _410  and  _411
REMARK  177  A    between atoms: _410  and  _413
REMARK  178  A    between atoms: _413  and  _414
REMARK  179  A    between atoms: _420  and  _422
REMARK  180  A    between atoms: _422  and  _423
REMARK  181  A    between atoms: _425  and  _427
REMARK  182  A    between atoms: _427  and  _428
REMARK  183  A    between atoms: _427  and  _430
REMARK  184  A    between atoms: _430  and  _431
REMARK  185  A    between atoms: _434  and  _436
REMARK  186  A    between atoms: _436  and  _437
REMARK  187  A    between atoms: _440  and  _442
REMARK  188  A    between atoms: _442  and  _443
REMARK  189  A    between atoms: _442  and  _445
REMARK  190  A    between atoms: _445  and  _446
REMARK  191  A    between atoms: _449  and  _451
REMARK  192  A    between atoms: _451  and  _452
REMARK  193  A    between atoms: _451  and  _454
REMARK  194  A    between atoms: _454  and  _455
REMARK  195  A    between atoms: _458  and  _460
REMARK  196  A    between atoms: _460  and  _461
REMARK  197  A    between atoms: _463  and  _465
REMARK  198  A    between atoms: _465  and  _466
REMARK  199  A    between atoms: _465  and  _468
REMARK  200  A    between atoms: _468  and  _469
REMARK  201  A    between atoms: _472  and  _474
REMARK  202  A    between atoms: _474  and  _475
REMARK  203  A    between atoms: _474  and  _477
REMARK  204  A    between atoms: _477  and  _478
REMARK  205  A    between atoms: _481  and  _483
REMARK  206  A    between atoms: _483  and  _484
REMARK  207  A    between atoms: _483  and  _486
REMARK  208  A    between atoms: _486  and  _487
REMARK  209  A    between atoms: _490  and  _492
REMARK  210  A    between atoms: _492  and  _493
REMARK  211  A    between atoms: _492  and  _495
REMARK  212  A    between atoms: _495  and  _496
REMARK  213  A    between atoms: _499  and  _501
REMARK  214  A    between atoms: _501  and  _502
REMARK  215  A    between atoms: _501  and  _504
REMARK  216  A    between atoms: _504  and  _505
REMARK  217  A    between atoms: _510  and  _511
REMARK  218  A    between atoms: _513  and  _515
REMARK  219  A    between atoms: _515  and  _516
REMARK  220  A    between atoms: _515  and  _518
REMARK  221  A    between atoms: _521  and  _523
REMARK  222  A    between atoms: _523  and  _524
REMARK  223  A    between atoms: _526  and  _528
REMARK  224  A    between atoms: _528  and  _529
REMARK  225  A    between atoms: _528  and  _531
REMARK  226  A    between atoms: _531  and  _532
REMARK  227  A    between atoms: _538  and  _540
REMARK  228  A    between atoms: _540  and  _541
REMARK  229  A    between atoms: _543  and  _545
REMARK  230  A    between atoms: _545  and  _546
REMARK  231  A    between atoms: _545  and  _548
REMARK  232  A    between atoms: _548  and  _549
REMARK  233  A    between atoms: _555  and  _557
REMARK  234  A    between atoms: _557  and  _558
REMARK  235  A    between atoms: _560  and  _562
REMARK  236  A    between atoms: _562  and  _563
REMARK  237  A    between atoms: _565  and  _567
REMARK  238  A    between atoms: _567  and  _568
REMARK  239  A    between atoms: _567  and  _570
REMARK  240  A    between atoms: _570  and  _571
REMARK  241  A    between atoms: _571  and  _572
REMARK  242  A    between atoms: _577  and  _579
REMARK  243  A    between atoms: _579  and  _580
REMARK  244  A    between atoms: _579  and  _582
REMARK  245  A    between atoms: _582  and  _583
REMARK  246  A    between atoms: _585  and  _587
REMARK  247  A    between atoms: _587  and  _588
REMARK  248  A    between atoms: _587  and  _590
REMARK  249  A    between atoms: _590  and  _591
REMARK  250  A    between atoms: _593  and  _595
REMARK  251  A    between atoms: _595  and  _596
REMARK  252  A    between atoms: _598  and  _600
REMARK  253  A    between atoms: _600  and  _601
REMARK  254  A    between atoms: _600  and  _603
REMARK  255  A    between atoms: _603  and  _604
REMARK  256  A    between atoms: _607  and  _609
REMARK  257  A    between atoms: _609  and  _610
REMARK  258  A    between atoms: _612  and  _614
REMARK  259  A    between atoms: _614  and  _615
REMARK  260  A    between atoms: _614  and  _617
REMARK  261  A    between atoms: _617  and  _618
REMARK  262  A    between atoms: _621  and  _623
REMARK  263  A    between atoms: _623  and  _624
REMARK  264  A    between atoms: _623  and  _626
REMARK  265  A    between atoms: _626  and  _627
REMARK  266  A    between atoms: _632  and  _634
REMARK  267  A    between atoms: _634  and  _635
REMARK  268  A    between atoms: _634  and  _637
REMARK  269  A    between atoms: _637  and  _638
REMARK  270  A    between atoms: _641  and  _643
REMARK  271  A    between atoms: _643  and  _644
REMARK  272  A    between atoms: _643  and  _646
REMARK  273  A    between atoms: _646  and  _647
REMARK  274  A    between atoms: _653  and  _655
REMARK  275  A    between atoms: _655  and  _656
REMARK  276  A    between atoms: _658  and  _660
REMARK  277  A    between atoms: _660  and  _661
REMARK  278  A    between atoms: _660  and  _663
REMARK  279  A    between atoms: _663  and  _664
REMARK                            x       y       z     vdW  Elec       q    Type
REMARK                         _______ _______ _______ _____ _____    ______ ____
ROOT
ATOM      1  C   LEU A   1      10.914  35.751   5.302  0.00  0.00    +0.238 C 
ATOM      2  N   ALA A   2       9.940  36.504   5.767  0.00  0.00    -0.298 N 
ATOM      3  H   ALA A   2       9.989  36.825   6.755  0.00  0.00    +0.150 HD
ATOM      4  O   LEU A   1      10.954  35.227   4.197  0.00  0.00    -0.274 OA
ENDROOT
BRANCH   2   5
ATOM      5  CA  ALA A   2       8.787  36.912   4.955  0.00  0.00    +0.137 C 
ATOM      6  CB  ALA A   2       7.567  37.254   5.879  0.00  0.00    +0.030 C 
BRANCH   5   7
ATOM      7  C   ALA A   2       9.169  38.163   4.209  0.00  0.00    +0.227 C 
ATOM      8  O   ALA A   2      10.356  38.438   4.008  0.00  0.00    -0.286 OA
ENDBRANCH   5   7
ENDBRANCH   2   5
BRANCH   1   9
ATOM      9  CA  LEU A   1      12.191  35.593   6.143  0.00  0.00    +0.145 C 
BRANCH   9  10
ATOM     10  N   LEU A   1      11.884  35.929   7.550  0.00  0.00    -0.238 NA
ATOM     11  H   LEU A   1      10.984  35.577   7.935  0.00  0.00    +0.142 HD
ENDBRANCH   9  10
BRANCH   9  12
ATOM     12  CB  LEU A   1      12.650  34.118   6.055  0.00  0.00    +0.026 C 
BRANCH  12  13
ATOM     13  CG  LEU A   1      14.040  33.964   6.721  0.00  0.00    +0.002 C 
ATOM     14  CD2 LEU A   1      14.371  32.467   6.828  0.00  0.00    +0.000 C 
ATOM     15  CD1 LEU A   1      15.083  34.607   5.766  0.00  0.00    +0.000 C 
ENDBRANCH  12  13
ENDBRANCH   9  12
ENDBRANCH   1   9
TORSDOF 6
REMARK  Name = ../refined-set-2016/4er1/4er1_pocket.pdb
REMARK  279 active torsions:
REMARK  status: ('A' for Active; 'I' for Inactive)
REMARK    1  A    between atoms: _1  and  _3
REMARK    2  A    between atoms: _3  and  _4
REMARK    3  A    between atoms: _3  and  _6
REMARK    4  A    between atoms: _6  and  _7
REMARK    5  A    between atoms: _10  and  _12
REMARK    6  A    between atoms: _12  and  _13
REMARK    7  A    between atoms: _12  and  _15
REMARK    8  A    between atoms: _15  and  _16
REMARK    9  A    between atoms: _19  and  _21
REMARK   10  A    between atoms: _21  and  _22
REMARK   11  A    between atoms: _21  and  _24
REMARK   12  A    between atoms: _24  and  _25
REMARK   13  A    between atoms: _28  and  _30
REMARK   14  A    between atoms: _30  and  _31
REMARK   15  A    between atoms: _30  and  _33
REMARK   16  A    between atoms: _33  and  _34
REMARK   17  A    between atoms: _37  and  _39
REMARK   18  A    between atoms: _39  and  _40
REMARK   19  A    between atoms: _39  and  _42
REMARK   20  A    between atoms: _42  and  _43
REMARK   21  A    between atoms: _46  and  _48
REMARK   22  A    between atoms: _48  and  _49
REMARK   23  A    between atoms: _52  and  _54
REMARK   24  A    between atoms: _54  and  _55
REMARK   25  A    between atoms: _54  and  _57
REMARK   26  A    between atoms: _57  and  _58
REMARK   27  A    between atoms: _63  and  _64
REMARK   28  A    between atoms: _66  and  _68
REMARK   29  A    between atoms: _68  and  _69
REMARK   30  A    between atoms: _68  and  _71
REMARK   31  A    between atoms: _71  and  _72
REMARK   32  A    between atoms: _75  and  _77
REMARK   33  A    between atoms: _77  and  _78
REMARK   34  A    between atoms: _77  and  _80
REMARK   35  A    between atoms: _80  and  _81
REMARK   36  A    between atoms: _87  and  _89
REMARK   37  A    between atoms: _89  and  _90
REMARK   38  A    between atoms: _89  and  _92
REMARK   39  A    between atoms: _92  and  _93
REMARK   40  A    between atoms: _96  and  _98
REMARK   41  A    between atoms: _98  and  _99
REMARK   42  A    between atoms: _98  and  _101
REMARK   43  A    between atoms: _101  and  _102
REMARK   44  A    between atoms: _105  and  _107
REMARK   45  A    between atoms: _107  and  _108
REMARK   46  A    between atoms: _110  and  _112
REMARK   47  A    between atoms: _112  and  _113
REMARK   48  A    between atoms: _112  and  _115
REMARK   49  A    between atoms: _115  and  _116
REMARK   50  A    between atoms: _118  and  _120
REMARK   51  A    between atoms: _120  and  _121
REMARK   52  A    between atoms: _120  and  _123
REMARK   53  A    between atoms: _123  and  _124
REMARK   54  A    between atoms: _126  and  _128
REMARK   55  A    between atoms: _128  and  _129
REMARK   56  A    between atoms: _128  and  _131
REMARK   57  A    between atoms: _131  and  _132
REMARK   58  A    between atoms: _135  and  _137
REMARK   59  A    between atoms: _137  and  _138
REMARK   60  A    between atoms: _137  and  _140
REMARK   61  A    between atoms: _140  and  _141
REMARK   62  A    between atoms: _151  and  _153
REMARK   63  A    between atoms: _153  and  _154
REMARK   64  A    between atoms: _153  and  _156
REMARK   65  A    between atoms: _156  and  _157
REMARK   66  A    between atoms: _159  and  _161
REMARK   67  A    between atoms: _161  and  _162
REMARK   68  A    between atoms: _161  and  _164
REMARK   69  A    between atoms: _164  and  _165
REMARK   70  A    between atoms: _168  and  _170
REMARK   71  A    between atoms: _170  and  _171
REMARK   72  A    between atoms: _170  and  _173
REMARK   73  A    between atoms: _173  and  _174
REMARK   74  A    between atoms: _176  and  _178
REMARK   75  A    between atoms: _178  and  _179
REMARK   76  A    between atoms: _178  and  _181
REMARK   77  A    between atoms: _181  and  _182
REMARK   78  A    between atoms: _187  and  _188
REMARK   79  A    between atoms: _190  and  _192
REMARK   80  A    between atoms: _192  and  _193
REMARK   81  A    between atoms: _195  and  _197
REMARK   82  A    between atoms: _197  and  _198
REMARK   83  A    between atoms: _197  and  _200
REMARK   84  A    between atoms: _200  and  _201
REMARK   85  A    between atoms: _204  and  _206
REMARK   86  A    between atoms: _206  and  _207
REMARK   87  A    between atoms: _209  and  _211
REMARK   88  A    between atoms: _211  and  _212
REMARK   89  A    between atoms: _211  and  _214
REMARK   90  A    between atoms: _214  and  _215
REMARK   91  A    between atoms: _217  and  _219
REMARK   92  A    between atoms: _219  and  _220
REMARK   93  A    between atoms: _219  and  _222
REMARK   94  A    between atoms: _222  and  _223
REMARK   95  A    between atoms: _225  and  _227
REMARK   96  A    between atoms: _227  and  _228
REMARK   97  A    between atoms: _227  and  _230
REMARK   98  A    between atoms: _230  and  _231
REMARK   99  A    between atoms: _233  and  _235
REMARK  100  A    between atoms: _235  and  _236
REMARK  101  A    between atoms: _235  and  _238
REMARK  102  A    between atoms: _238  and  _239
REMARK  103  A    between atoms: _241  and  _243
REMARK  104  A    between atoms: _243  and  _244
REMARK  105  A    between atoms: _243  and  _246
REMARK  106  A    between atoms: _246  and  _247
REMARK  107  A    between atoms: _249  and  _251
REMARK  108  A    between atoms: _251  and  _252
REMARK  109  A    between atoms: _251  and  _254
REMARK  110  A    between atoms: _254  and  _255
REMARK  111  A    between atoms: _261  and  _263
REMARK  112  A    between atoms: _263  and  _264
REMARK  113  A    between atoms: _263  and  _266
REMARK  114  A    between atoms: _266  and  _267
REMARK  115  A    between atoms: _270  and  _272
REMARK  116  A    between atoms: _272  and  _273
REMARK  117  A    between atoms: _272  and  _275
REMARK  118  A    between atoms: _275  and  _276
REMARK  119  A    between atoms: _276  and  _277
REMARK  120  A    between atoms: _280  and  _282
REMARK  121  A    between atoms: _282  and  _283
REMARK  122  A    between atoms: _282  and  _285
REMARK  123  A    between atoms: _285  and  _286
REMARK  124  A    between atoms: _289  and  _291
REMARK  125  A    between atoms: _291  and  _292
REMARK  126  A    between atoms: _291  and  _294
REMARK  127  A    between atoms: _294  and  _295
REMARK  128  A    between atoms: _297  and  _299
REMARK  129  A    between atoms: _299  and  _300
REMARK  130  A    between atoms: _299  and  _302
REMARK  131  A    between atoms: _302  and  _303
REMARK  132  A    between atoms: _306  and  _308
REMARK  133  A    between atoms: _308  and  _309
REMARK  134  A    between atoms: _308  and  _311
REMARK  135  A    between atoms: _311  and  _312
REMARK  136  A    between atoms: _315  and  _317
REMARK  137  A    between atoms: _317  and  _318
REMARK  138  A    between atoms: _320  and  _322
REMARK  139  A    between atoms: _322  and  _323
REMARK  140  A    between atoms: _322  and  _325
REMARK  141  A    between atoms: _325  and  _326
REMARK  142  A    between atoms: _329  and  _331
REMARK  143  A    between atoms: _331  and  _332
REMARK  144  A    between atoms: _331  and  _334
REMARK  145  A    between atoms: _334  and  _335
REMARK  146  A    between atoms: _338  and  _340
REMARK  147  A    between atoms: _340  and  _341
REMARK  148  A    between atoms: _340  and  _343
REMARK  149  A    between atoms: _343  and  _344
REMARK  150  A    between atoms: _347  and  _349
REMARK  151  A    between atoms: _349  and  _350
REMARK  152  A    between atoms: _353  and  _355
REMARK  153  A    between atoms: _355  and  _356
REMARK  154  A    between atoms: _355  and  _358
REMARK  155  A    between atoms: _358  and  _359
REMARK  156  A    between atoms: _362  and  _364
REMARK  157  A    between atoms: _364  and  _365
REMARK  158  A    between atoms: _364  and  _367
REMARK  159  A    between atoms: _367  and  _368
REMARK  160  A    between atoms: _371  and  _373
REMARK  161  A    between atoms: _373  and  _374
REMARK  162  A    between atoms: _373  and  _376
REMARK  163  A    between atoms: _376  and  _377
REMARK  164  A    between atoms: _382  and  _384
REMARK  165  A    between atoms: _384  and  _385
REMARK  166  A    between atoms: _384  and  _387
REMARK  167  A    between atoms: _387  and  _388
REMARK  168  A    between atoms: _391  and  _393
REMARK  169  A    between atoms: _393  and  _394
REMARK  170  A    between atoms: _393  and  _396
REMARK  171  A    between atoms: _396  and  _397
REMARK  172  A    between atoms: _397  and  _398
REMARK  173  A    between atoms: _403  and  _405
REMARK  174  A    between atoms: _405  and  _406
REMARK  175  A    between atoms: _408  and  _410
REMARK  176  A    between atoms: _410  and  _411
REMARK  177  A    between atoms: _410  and  _413
REMARK  178  A    between atoms: _413  and  _414
REMARK  179  A    between atoms: _420  and  _422
REMARK  180  A    between atoms: _422  and  _423
REMARK  181  A    between atoms: _425  and  _427
REMARK  182  A    between atoms: _427  and  _428
REMARK  183  A    between atoms: _427  and  _430
REMARK  184  A    between atoms: _430  and  _431
REMARK  185  A    between atoms: _434  and  _436
REMARK  186  A    between atoms: _436  and  _437
REMARK  187  A    between atoms: _440  and  _442
REMARK  188  A    between atoms: _442  and  _443
REMARK  189  A    between atoms: _442  and  _445
REMARK  190  A    between atoms: _445  and  _446
REMARK  191  A    between atoms: _449  and  _451
REMARK  192  A    between atoms: _451  and  _452
REMARK  193  A    between atoms: _451  and  _454
REMARK  194  A    between atoms: _454  and  _455
REMARK  195  A    between atoms: _458  and  _460
REMARK  196  A    between atoms: _460  and  _461
REMARK  197  A    between atoms: _463  and  _465
REMARK  198  A    between atoms: _465  and  _466
REMARK  199  A    between atoms: _465  and  _468
REMARK  200  A    between atoms: _468  and  _469
REMARK  201  A    between atoms: _472  and  _474
REMARK  202  A    between atoms: _474  and  _475
REMARK  203  A    between atoms: _474  and  _477
REMARK  204  A    between atoms: _477  and  _478
REMARK  205  A    between atoms: _481  and  _483
REMARK  206  A    between atoms: _483  and  _484
REMARK  207  A    between atoms: _483  and  _486
REMARK  208  A    between atoms: _486  and  _487
REMARK  209  A    between atoms: _490  and  _492
REMARK  210  A    between atoms: _492  and  _493
REMARK  211  A    between atoms: _492  and  _495
REMARK  212  A    between atoms: _495  and  _496
REMARK  213  A    between atoms: _499  and  _501
REMARK  214  A    between atoms: _501  and  _502
REMARK  215  A    between atoms: _501  and  _504
REMARK  216  A    between atoms: _504  and  _505
REMARK  217  A    between atoms: _510  and  _511
REMARK  218  A    between atoms: _513  and  _515
REMARK  219  A    between atoms: _515  and  _516
REMARK  220  A    between atoms: _515  and  _518
REMARK  221  A    between atoms: _521  and  _523
REMARK  222  A    between atoms: _523  and  _524
REMARK  223  A    between atoms: _526  and  _528
REMARK  224  A    between atoms: _528  and  _529
REMARK  225  A    between atoms: _528  and  _531
REMARK  226  A    between atoms: _531  and  _532
REMARK  227  A    between atoms: _538  and  _540
REMARK  228  A    between atoms: _540  and  _541
REMARK  229  A    between atoms: _543  and  _545
REMARK  230  A    between atoms: _545  and  _546
REMARK  231  A    between atoms: _545  and  _548
REMARK  232  A    between atoms: _548  and  _549
REMARK  233  A    between atoms: _555  and  _557
REMARK  234  A    between atoms: _557  and  _558
REMARK  235  A    between atoms: _560  and  _562
REMARK  236  A    between atoms: _562  and  _563
REMARK  237  A    between atoms: _565  and  _567
REMARK  238  A    between atoms: _567  and  _568
REMARK  239  A    between atoms: _567  and  _570
REMARK  240  A    between atoms: _570  and  _571
REMARK  241  A    between atoms: _571  and  _572
REMARK  242  A    between atoms: _577  and  _579
REMARK  243  A    between atoms: _579  and  _580
REMARK  244  A    between atoms: _579  and  _582
REMARK  245  A    between atoms: _582  and  _583
REMARK  246  A    between atoms: _585  and  _587
REMARK  247  A    between atoms: _587  and  _588
REMARK  248  A    between atoms: _587  and  _590
REMARK  249  A    between atoms: _590  and  _591
REMARK  250  A    between atoms: _593  and  _595
REMARK  251  A    between atoms: _595  and  _596
REMARK  252  A    between atoms: _598  and  _600
REMARK  253  A    between atoms: _600  and  _601
REMARK  254  A    between atoms: _600  and  _603
REMARK  255  A    between atoms: _603  and  _604
REMARK  256  A    between atoms: _607  and  _609
REMARK  257  A    between atoms: _609  and  _610
REMARK  258  A    between atoms: _612  and  _614
REMARK  259  A    between atoms: _614  and  _615
REMARK  260  A    between atoms: _614  and  _617
REMARK  261  A    between atoms: _617  and  _618
REMARK  262  A    between atoms: _621  and  _623
REMARK  263  A    between atoms: _623  and  _624
REMARK  264  A    between atoms: _623  and  _626
REMARK  265  A    between atoms: _626  and  _627
REMARK  266  A    between atoms: _632  and  _634
REMARK  267  A    between atoms: _634  and  _635
REMARK  268  A    between atoms: _634  and  _637
REMARK  269  A    between atoms: _637  and  _638
REMARK  270  A    between atoms: _641  and  _643
REMARK  271  A    between atoms: _643  and  _644
REMARK  272  A    between atoms: _643  and  _646
REMARK  273  A    between atoms: _646  and  _647
REMARK  274  A    between atoms: _653  and  _655
REMARK  275  A    between atoms: _655  and  _656
REMARK  276  A    between atoms: _658  and  _660
REMARK  277  A    between atoms: _660  and  _661
REMARK  278  A    between atoms: _660  and  _663
REMARK  279  A    between atoms: _663  and  _664
REMARK                            x       y       z     vdW  Elec       q    Type
REMARK                         _______ _______ _______ _____ _____    ______ ____
ROOT
ATOM      1  C   LEU A   2       7.088  43.797   8.323  0.00  0.00    +0.241 C 
ATOM      2  O   LEU A   2       6.798  43.728   9.509  0.00  0.00    -0.273 OA
ATOM      3  N   ASN A   3       8.268  44.249   7.925  0.00  0.00    -0.297 N 
ATOM      4  H   ASN A   3       8.549  44.308   6.925  0.00  0.00    +0.150 HD
ENDROOT
BRANCH   3   5
ATOM      5  CA  ASN A   3       9.169  44.672   9.068  0.00  0.00    +0.158 C 
BRANCH   5   6
ATOM      6  C   ASN A   3       8.704  45.788   9.968  0.00  0.00    +0.241 C 
ATOM      7  N   THR A   4       8.990  45.651  11.285  0.00  0.00    -0.296 N 
ATOM      8  H   THR A   4       9.589  44.878  11.638  0.00  0.00    +0.150 HD
ATOM      9  O   ASN A   3       8.109  46.812   9.513  0.00  0.00    -0.273 OA
BRANCH   7  10
ATOM     10  CA  THR A   4       8.389  46.686  12.217  0.00  0.00    +0.164 C 
BRANCH  10  11
ATOM     11  CB  THR A   4       7.951  46.055  13.508  0.00  0.00    +0.136 C 
ATOM     12  CG2 THR A   4       7.079  44.852  13.245  0.00  0.00    +0.034 C 
BRANCH  11  13
ATOM     13  OG1 THR A   4       9.057  45.629  14.289  0.00  0.00    -0.382 OA
ATOM     14  HG1 THR A   4       9.582  44.962  13.779  0.00  0.00    +0.210 HD
ENDBRANCH  11  13
ENDBRANCH  10  11
BRANCH  10  15
ATOM     15  C   THR A   4       9.255  47.902  12.467  0.00  0.00    +0.229 C 
ATOM     16  O   THR A   4       8.819  48.797  13.235  0.00  0.00    -0.286 OA
ENDBRANCH  10  15
ENDBRANCH   7  10
ENDBRANCH   5   6
BRANCH   5  17
ATOM     17  CB  ASN A   3      10.495  45.009   8.467  0.00  0.00    +0.114 C 
BRANCH  17  18
ATOM     18  CG  ASN A   3      11.611  45.435   9.409  0.00  0.00    +0.222 C 
ATOM     19  OD1 ASN A   3      12.389  44.546  10.092  0.00  0.00    -0.275 OA
ATOM     20  ND2 ASN A   3      11.852  46.679   9.582  0.00  0.00    -0.329 N 
ATOM     21 HD21 ASN A   3      12.615  46.977  10.222  0.00  0.00    +0.145 HD
ATOM     22 HD22 ASN A   3      11.285  47.393   9.082  0.00  0.00    +0.145 HD
ENDBRANCH  17  18
ENDBRANCH   5  17
ENDBRANCH   3   5
BRANCH   1  23
ATOM     23  CA  LEU A   2       6.051  43.396   7.265  0.00  0.00    +0.149 C 
BRANCH  23  25
ATOM     24  C   THR A   1       6.407  44.807   5.278  0.00  0.00    +0.241 C 
ATOM     25  N   LEU A   2       6.606  43.634   5.909  0.00  0.00    -0.297 N 
ATOM     26  H   LEU A   2       7.155  42.886   5.440  0.00  0.00    +0.150 HD
ATOM     27  O   THR A   1       5.707  45.635   5.864  0.00  0.00    -0.274 OA
BRANCH  24  28
ATOM     28  CA  THR A   1       6.956  45.035   3.907  0.00  0.00    +0.172 C 
BRANCH  28  29
ATOM     29  CB  THR A   1       5.835  44.888   2.798  0.00  0.00    +0.135 C 
ATOM     30  CG2 THR A   1       5.096  43.596   3.013  0.00  0.00    +0.034 C 
BRANCH  29  31
ATOM     31  OG1 THR A   1       4.897  45.982   3.084  0.00  0.00    -0.383 OA
ATOM     32  HG1 THR A   1       5.372  46.848   3.019  0.00  0.00    +0.210 HD
ENDBRANCH  29  31
ENDBRANCH  28  29
BRANCH  28  33
ATOM     33  N   THR A   1       8.161  44.277   3.566  0.00  0.00    -0.236 NA
ATOM     34  H   THR A   1       8.154  43.719   2.688  0.00  0.00    +0.142 HD
ENDBRANCH  28  33
ENDBRANCH  24  28
ENDBRANCH  23  25
BRANCH  23  35
ATOM     35  CB  LEU A   2       5.776  41.893   7.476  0.00  0.00    +0.029 C 
BRANCH  35  36
ATOM     36  CG  LEU A   2       4.659  41.496   6.458  0.00  0.00    +0.002 C 
ATOM     37  CD2 LEU A   2       4.320  40.035   6.929  0.00  0.00    +0.000 C 
ATOM     38  CD1 LEU A   2       3.383  42.301   6.691  0.00  0.00    +0.000 C 
ENDBRANCH  35  36
ENDBRANCH  23  35
ENDBRANCH   1  23
TORSDOF 16
REMARK  Name = ../refined-set-2016/4er1/4er1_pocket.pdb
REMARK  279 active torsions:
REMARK  status: ('A' for Active; 'I' for Inactive)
REMARK    1  A    between atoms: _1  and  _3
REMARK    2  A    between atoms: _3  and  _4
REMARK    3  A    between atoms: _3  and  _6
REMARK    4  A    between atoms: _6  and  _7
REMARK    5  A    between atoms: _10  and  _12
REMARK    6  A    between atoms: _12  and  _13
REMARK    7  A    between atoms: _12  and  _15
REMARK    8  A    between atoms: _15  and  _16
REMARK    9  A    between atoms: _19  and  _21
REMARK   10  A    between atoms: _21  and  _22
REMARK   11  A    between atoms: _21  and  _24
REMARK   12  A    between atoms: _24  and  _25
REMARK   13  A    between atoms: _28  and  _30
REMARK   14  A    between atoms: _30  and  _31
REMARK   15  A    between atoms: _30  and  _33
REMARK   16  A    between atoms: _33  and  _34
REMARK   17  A    between atoms: _37  and  _39
REMARK   18  A    between atoms: _39  and  _40
REMARK   19  A    between atoms: _39  and  _42
REMARK   20  A    between atoms: _42  and  _43
REMARK   21  A    between atoms: _46  and  _48
REMARK   22  A    between atoms: _48  and  _49
REMARK   23  A    between atoms: _52  and  _54
REMARK   24  A    between atoms: _54  and  _55
REMARK   25  A    between atoms: _54  and  _57
REMARK   26  A    between atoms: _57  and  _58
REMARK   27  A    between atoms: _63  and  _64
REMARK   28  A    between atoms: _66  and  _68
REMARK   29  A    between atoms: _68  and  _69
REMARK   30  A    between atoms: _68  and  _71
REMARK   31  A    between atoms: _71  and  _72
REMARK   32  A    between atoms: _75  and  _77
REMARK   33  A    between atoms: _77  and  _78
REMARK   34  A    between atoms: _77  and  _80
REMARK   35  A    between atoms: _80  and  _81
REMARK   36  A    between atoms: _87  and  _89
REMARK   37  A    between atoms: _89  and  _90
REMARK   38  A    between atoms: _89  and  _92
REMARK   39  A    between atoms: _92  and  _93
REMARK   40  A    between atoms: _96  and  _98
REMARK   41  A    between atoms: _98  and  _99
REMARK   42  A    between atoms: _98  and  _101
REMARK   43  A    between atoms: _101  and  _102
REMARK   44  A    between atoms: _105  and  _107
REMARK   45  A    between atoms: _107  and  _108
REMARK   46  A    between atoms: _110  and  _112
REMARK   47  A    between atoms: _112  and  _113
REMARK   48  A    between atoms: _112  and  _115
REMARK   49  A    between atoms: _115  and  _116
REMARK   50  A    between atoms: _118  and  _120
REMARK   51  A    between atoms: _120  and  _121
REMARK   52  A    between atoms: _120  and  _123
REMARK   53  A    between atoms: _123  and  _124
REMARK   54  A    between atoms: _126  and  _128
REMARK   55  A    between atoms: _128  and  _129
REMARK   56  A    between atoms: _128  and  _131
REMARK   57  A    between atoms: _131  and  _132
REMARK   58  A    between atoms: _135  and  _137
REMARK   59  A    between atoms: _137  and  _138
REMARK   60  A    between atoms: _137  and  _140
REMARK   61  A    between atoms: _140  and  _141
REMARK   62  A    between atoms: _151  and  _153
REMARK   63  A    between atoms: _153  and  _154
REMARK   64  A    between atoms: _153  and  _156
REMARK   65  A    between atoms: _156  and  _157
REMARK   66  A    between atoms: _159  and  _161
REMARK   67  A    between atoms: _161  and  _162
REMARK   68  A    between atoms: _161  and  _164
REMARK   69  A    between atoms: _164  and  _165
REMARK   70  A    between atoms: _168  and  _170
REMARK   71  A    between atoms: _170  and  _171
REMARK   72  A    between atoms: _170  and  _173
REMARK   73  A    between atoms: _173  and  _174
REMARK   74  A    between atoms: _176  and  _178
REMARK   75  A    between atoms: _178  and  _179
REMARK   76  A    between atoms: _178  and  _181
REMARK   77  A    between atoms: _181  and  _182
REMARK   78  A    between atoms: _187  and  _188
REMARK   79  A    between atoms: _190  and  _192
REMARK   80  A    between atoms: _192  and  _193
REMARK   81  A    between atoms: _195  and  _197
REMARK   82  A    between atoms: _197  and  _198
REMARK   83  A    between atoms: _197  and  _200
REMARK   84  A    between atoms: _200  and  _201
REMARK   85  A    between atoms: _204  and  _206
REMARK   86  A    between atoms: _206  and  _207
REMARK   87  A    between atoms: _209  and  _211
REMARK   88  A    between atoms: _211  and  _212
REMARK   89  A    between atoms: _211  and  _214
REMARK   90  A    between atoms: _214  and  _215
REMARK   91  A    between atoms: _217  and  _219
REMARK   92  A    between atoms: _219  and  _220
REMARK   93  A    between atoms: _219  and  _222
REMARK   94  A    between atoms: _222  and  _223
REMARK   95  A    between atoms: _225  and  _227
REMARK   96  A    between atoms: _227  and  _228
REMARK   97  A    between atoms: _227  and  _230
REMARK   98  A    between atoms: _230  and  _231
REMARK   99  A    between atoms: _233  and  _235
REMARK  100  A    between atoms: _235  and  _236
REMARK  101  A    between atoms: _235  and  _238
REMARK  102  A    between atoms: _238  and  _239
REMARK  103  A    between atoms: _241  and  _243
REMARK  104  A    between atoms: _243  and  _244
REMARK  105  A    between atoms: _243  and  _246
REMARK  106  A    between atoms: _246  and  _247
REMARK  107  A    between atoms: _249  and  _251
REMARK  108  A    between atoms: _251  and  _252
REMARK  109  A    between atoms: _251  and  _254
REMARK  110  A    between atoms: _254  and  _255
REMARK  111  A    between atoms: _261  and  _263
REMARK  112  A    between atoms: _263  and  _264
REMARK  113  A    between atoms: _263  and  _266
REMARK  114  A    between atoms: _266  and  _267
REMARK  115  A    between atoms: _270  and  _272
REMARK  116  A    between atoms: _272  and  _273
REMARK  117  A    between atoms: _272  and  _275
REMARK  118  A    between atoms: _275  and  _276
REMARK  119  A    between atoms: _276  and  _277
REMARK  120  A    between atoms: _280  and  _282
REMARK  121  A    between atoms: _282  and  _283
REMARK  122  A    between atoms: _282  and  _285
REMARK  123  A    between atoms: _285  and  _286
REMARK  124  A    between atoms: _289  and  _291
REMARK  125  A    between atoms: _291  and  _292
REMARK  126  A    between atoms: _291  and  _294
REMARK  127  A    between atoms: _294  and  _295
REMARK  128  A    between atoms: _297  and  _299
REMARK  129  A    between atoms: _299  and  _300
REMARK  130  A    between atoms: _299  and  _302
REMARK  131  A    between atoms: _302  and  _303
REMARK  132  A    between atoms: _306  and  _308
REMARK  133  A    between atoms: _308  and  _309
REMARK  134  A    between atoms: _308  and  _311
REMARK  135  A    between atoms: _311  and  _312
REMARK  136  A    between atoms: _315  and  _317
REMARK  137  A    between atoms: _317  and  _318
REMARK  138  A    between atoms: _320  and  _322
REMARK  139  A    between atoms: _322  and  _323
REMARK  140  A    between atoms: _322  and  _325
REMARK  141  A    between atoms: _325  and  _326
REMARK  142  A    between atoms: _329  and  _331
REMARK  143  A    between atoms: _331  and  _332
REMARK  144  A    between atoms: _331  and  _334
REMARK  145  A    between atoms: _334  and  _335
REMARK  146  A    between atoms: _338  and  _340
REMARK  147  A    between atoms: _340  and  _341
REMARK  148  A    between atoms: _340  and  _343
REMARK  149  A    between atoms: _343  and  _344
REMARK  150  A    between atoms: _347  and  _349
REMARK  151  A    between atoms: _349  and  _350
REMARK  152  A    between atoms: _353  and  _355
REMARK  153  A    between atoms: _355  and  _356
REMARK  154  A    between atoms: _355  and  _358
REMARK  155  A    between atoms: _358  and  _359
REMARK  156  A    between atoms: _362  and  _364
REMARK  157  A    between atoms: _364  and  _365
REMARK  158  A    between atoms: _364  and  _367
REMARK  159  A    between atoms: _367  and  _368
REMARK  160  A    between atoms: _371  and  _373
REMARK  161  A    between atoms: _373  and  _374
REMARK  162  A    between atoms: _373  and  _376
REMARK  163  A    between atoms: _376  and  _377
REMARK  164  A    between atoms: _382  and  _384
REMARK  165  A    between atoms: _384  and  _385
REMARK  166  A    between atoms: _384  and  _387
REMARK  167  A    between atoms: _387  and  _388
REMARK  168  A    between atoms: _391  and  _393
REMARK  169  A    between atoms: _393  and  _394
REMARK  170  A    between atoms: _393  and  _396
REMARK  171  A    between atoms: _396  and  _397
REMARK  172  A    between atoms: _397  and  _398
REMARK  173  A    between atoms: _403  and  _405
REMARK  174  A    between atoms: _405  and  _406
REMARK  175  A    between atoms: _408  and  _410
REMARK  176  A    between atoms: _410  and  _411
REMARK  177  A    between atoms: _410  and  _413
REMARK  178  A    between atoms: _413  and  _414
REMARK  179  A    between atoms: _420  and  _422
REMARK  180  A    between atoms: _422  and  _423
REMARK  181  A    between atoms: _425  and  _427
REMARK  182  A    between atoms: _427  and  _428
REMARK  183  A    between atoms: _427  and  _430
REMARK  184  A    between atoms: _430  and  _431
REMARK  185  A    between atoms: _434  and  _436
REMARK  186  A    between atoms: _436  and  _437
REMARK  187  A    between atoms: _440  and  _442
REMARK  188  A    between atoms: _442  and  _443
REMARK  189  A    between atoms: _442  and  _445
REMARK  190  A    between atoms: _445  and  _446
REMARK  191  A    between atoms: _449  and  _451
REMARK  192  A    between atoms: _451  and  _452
REMARK  193  A    between atoms: _451  and  _454
REMARK  194  A    between atoms: _454  and  _455
REMARK  195  A    between atoms: _458  and  _460
REMARK  196  A    between atoms: _460  and  _461
REMARK  197  A    between atoms: _463  and  _465
REMARK  198  A    between atoms: _465  and  _466
REMARK  199  A    between atoms: _465  and  _468
REMARK  200  A    between atoms: _468  and  _469
REMARK  201  A    between atoms: _472  and  _474
REMARK  202  A    between atoms: _474  and  _475
REMARK  203  A    between atoms: _474  and  _477
REMARK  204  A    between atoms: _477  and  _478
REMARK  205  A    between atoms: _481  and  _483
REMARK  206  A    between atoms: _483  and  _484
REMARK  207  A    between atoms: _483  and  _486
REMARK  208  A    between atoms: _486  and  _487
REMARK  209  A    between atoms: _490  and  _492
REMARK  210  A    between atoms: _492  and  _493
REMARK  211  A    between atoms: _492  and  _495
REMARK  212  A    between atoms: _495  and  _496
REMARK  213  A    between atoms: _499  and  _501
REMARK  214  A    between atoms: _501  and  _502
REMARK  215  A    between atoms: _501  and  _504
REMARK  216  A    between atoms: _504  and  _505
REMARK  217  A    between atoms: _510  and  _511
REMARK  218  A    between atoms: _513  and  _515
REMARK  219  A    between atoms: _515  and  _516
REMARK  220  A    between atoms: _515  and  _518
REMARK  221  A    between atoms: _521  and  _523
REMARK  222  A    between atoms: _523  and  _524
REMARK  223  A    between atoms: _526  and  _528
REMARK  224  A    between atoms: _528  and  _529
REMARK  225  A    between atoms: _528  and  _531
REMARK  226  A    between atoms: _531  and  _532
REMARK  227  A    between atoms: _538  and  _540
REMARK  228  A    between atoms: _540  and  _541
REMARK  229  A    between atoms: _543  and  _545
REMARK  230  A    between atoms: _545  and  _546
REMARK  231  A    between atoms: _545  and  _548
REMARK  232  A    between atoms: _548  and  _549
REMARK  233  A    between atoms: _555  and  _557
REMARK  234  A    between atoms: _557  and  _558
REMARK  235  A    between atoms: _560  and  _562
REMARK  236  A    between atoms: _562  and  _563
REMARK  237  A    between atoms: _565  and  _567
REMARK  238  A    between atoms: _567  and  _568
REMARK  239  A    between atoms: _567  and  _570
REMARK  240  A    between atoms: _570  and  _571
REMARK  241  A    between atoms: _571  and  _572
REMARK  242  A    between atoms: _577  and  _579
REMARK  243  A    between atoms: _579  and  _580
REMARK  244  A    between atoms: _579  and  _582
REMARK  245  A    between atoms: _582  and  _583
REMARK  246  A    between atoms: _585  and  _587
REMARK  247  A    between atoms: _587  and  _588
REMARK  248  A    between atoms: _587  and  _590
REMARK  249  A    between atoms: _590  and  _591
REMARK  250  A    between atoms: _593  and  _595
REMARK  251  A    between atoms: _595  and  _596
REMARK  252  A    between atoms: _598  and  _600
REMARK  253  A    between atoms: _600  and  _601
REMARK  254  A    between atoms: _600  and  _603
REMARK  255  A    between atoms: _603  and  _604
REMARK  256  A    between atoms: _607  and  _609
REMARK  257  A    between atoms: _609  and  _610
REMARK  258  A    between atoms: _612  and  _614
REMARK  259  A    between atoms: _614  and  _615
REMARK  260  A    between atoms: _614  and  _617
REMARK  261  A    between atoms: _617  and  _618
REMARK  262  A    between atoms: _621  and  _623
REMARK  263  A    between atoms: _623  and  _624
REMARK  264  A    between atoms: _623  and  _626
REMARK  265  A    between atoms: _626  and  _627
REMARK  266  A    between atoms: _632  and  _634
REMARK  267  A    between atoms: _634  and  _635
REMARK  268  A    between atoms: _634  and  _637
REMARK  269  A    between atoms: _637  and  _638
REMARK  270  A    between atoms: _641  and  _643
REMARK  271  A    between atoms: _643  and  _644
REMARK  272  A    between atoms: _643  and  _646
REMARK  273  A    between atoms: _646  and  _647
REMARK  274  A    between atoms: _653  and  _655
REMARK  275  A    between atoms: _655  and  _656
REMARK  276  A    between atoms: _658  and  _660
REMARK  277  A    between atoms: _660  and  _661
REMARK  278  A    between atoms: _660  and  _663
REMARK  279  A    between atoms: _663  and  _664
REMARK                            x       y       z     vdW  Elec       q    Type
REMARK                         _______ _______ _______ _____ _____    ______ ____
ROOT
ATOM      1  CA  GLY A   2       3.470  40.286   2.980  0.00  0.00    +0.176 C 
ENDROOT
BRANCH   1   4
ATOM      2  C   GLN A   1       1.050  40.474   3.310  0.00  0.00    +0.238 C 
ATOM      3  O   GLN A   1       1.130  40.455   4.565  0.00  0.00    -0.274 OA
ATOM      4  N   GLY A   2       2.055  40.353   2.496  0.00  0.00    -0.296 N 
ATOM      5  H   GLY A   2       1.870  40.301   1.474  0.00  0.00    +0.150 HD
BRANCH   2   6
ATOM      6  CA  GLN A   1      -0.366  40.718   2.767  0.00  0.00    +0.145 C 
BRANCH   6   7
ATOM      7  N   GLN A   1      -0.223  40.429   1.308  0.00  0.00    -0.238 NA
ATOM      8  H   GLN A   1       0.000  39.480   0.946  0.00  0.00    +0.142 HD
ENDBRANCH   6   7
BRANCH   6   9
ATOM      9  CB  GLN A   1      -1.188  39.550   3.432  0.00  0.00    +0.036 C 
BRANCH   9  10
ATOM     10  CG  GLN A   1      -2.709  39.583   3.198  0.00  0.00    +0.087 C 
BRANCH  10  11
ATOM     11  CD  GLN A   1      -3.453  38.413   3.888  0.00  0.00    +0.219 C 
ATOM     12  NE2 GLN A   1      -3.847  38.565   5.159  0.00  0.00    -0.329 N 
ATOM     13 HE21 GLN A   1      -3.657  39.457   5.659  0.00  0.00    +0.145 HD
ATOM     14 HE22 GLN A   1      -4.343  37.791   5.646  0.00  0.00    +0.145 HD
ATOM     15  OE1 GLN A   1      -3.729  37.231   3.291  0.00  0.00    -0.275 OA
ENDBRANCH  10  11
ENDBRANCH   9  10
ENDBRANCH   6   9
ENDBRANCH   2   6
ENDBRANCH   1   4
BRANCH   1  16
ATOM     16  C   GLY A   2       3.991  38.944   3.393  0.00  0.00    +0.243 C 
ATOM     17  O   GLY A   2       5.165  38.768   3.726  0.00  0.00    -0.273 OA
ATOM     18  N   PHE A   3       3.272  37.854   3.143  0.00  0.00    -0.298 N 
ATOM     19  H   PHE A   3       2.383  38.002   2.624  0.00  0.00    +0.150 HD
BRANCH  18  20
ATOM     20  CA  PHE A   3       3.574  36.498   3.503  0.00  0.00    +0.141 C 
BRANCH  20  21
ATOM     21  C   PHE A   3       3.901  35.700   2.218  0.00  0.00    +0.227 C 
ATOM     22  O   PHE A   3       3.589  36.130   1.122  0.00  0.00    -0.286 OA
ENDBRANCH  20  21
BRANCH  20  23
ATOM     23  CB  PHE A   3       2.460  35.742   4.254  0.00  0.00    +0.054 C 
BRANCH  23  24
ATOM     24  CG  PHE A   3       1.971  36.367   5.514  0.00  0.00    -0.020 A 
ATOM     25  CD2 PHE A   3       2.764  36.486   6.592  0.00  0.00    -0.004 A 
ATOM     26  CE2 PHE A   3       2.336  37.085   7.760  0.00  0.00    -0.000 A 
ATOM     27  CZ  PHE A   3       1.035  37.549   7.814  0.00  0.00    -0.000 A 
ATOM     28  CE1 PHE A   3       0.218  37.480   6.728  0.00  0.00    -0.000 A 
ATOM     29  CD1 PHE A   3       0.641  36.862   5.525  0.00  0.00    -0.004 A 
ENDBRANCH  23  24
ENDBRANCH  20  23
ENDBRANCH  18  20
ENDBRANCH   1  16
TORSDOF 11
REMARK  Name = ../refined-set-2016/4er1/4er1_pocket.pdb
REMARK  279 active torsions:
REMARK  status: ('A' for Active; 'I' for Inactive)
REMARK    1  A    between atoms: _1  and  _3
REMARK    2  A    between atoms: _3  and  _4
REMARK    3  A    between atoms: _3  and  _6
REMARK    4  A    between atoms: _6  and  _7
REMARK    5  A    between atoms: _10  and  _12
REMARK    6  A    between atoms: _12  and  _13
REMARK    7  A    between atoms: _12  and  _15
REMARK    8  A    between atoms: _15  and  _16
REMARK    9  A    between atoms: _19  and  _21
REMARK   10  A    between atoms: _21  and  _22
REMARK   11  A    between atoms: _21  and  _24
REMARK   12  A    between atoms: _24  and  _25
REMARK   13  A    between atoms: _28  and  _30
REMARK   14  A    between atoms: _30  and  _31
REMARK   15  A    between atoms: _30  and  _33
REMARK   16  A    between atoms: _33  and  _34
REMARK   17  A    between atoms: _37  and  _39
REMARK   18  A    between atoms: _39  and  _40
REMARK   19  A    between atoms: _39  and  _42
REMARK   20  A    between atoms: _42  and  _43
REMARK   21  A    between atoms: _46  and  _48
REMARK   22  A    between atoms: _48  and  _49
REMARK   23  A    between atoms: _52  and  _54
REMARK   24  A    between atoms: _54  and  _55
REMARK   25  A    between atoms: _54  and  _57
REMARK   26  A    between atoms: _57  and  _58
REMARK   27  A    between atoms: _63  and  _64
REMARK   28  A    between atoms: _66  and  _68
REMARK   29  A    between atoms: _68  and  _69
REMARK   30  A    between atoms: _68  and  _71
REMARK   31  A    between atoms: _71  and  _72
REMARK   32  A    between atoms: _75  and  _77
REMARK   33  A    between atoms: _77  and  _78
REMARK   34  A    between atoms: _77  and  _80
REMARK   35  A    between atoms: _80  and  _81
REMARK   36  A    between atoms: _87  and  _89
REMARK   37  A    between atoms: _89  and  _90
REMARK   38  A    between atoms: _89  and  _92
REMARK   39  A    between atoms: _92  and  _93
REMARK   40  A    between atoms: _96  and  _98
REMARK   41  A    between atoms: _98  and  _99
REMARK   42  A    between atoms: _98  and  _101
REMARK   43  A    between atoms: _101  and  _102
REMARK   44  A    between atoms: _105  and  _107
REMARK   45  A    between atoms: _107  and  _108
REMARK   46  A    between atoms: _110  and  _112
REMARK   47  A    between atoms: _112  and  _113
REMARK   48  A    between atoms: _112  and  _115
REMARK   49  A    between atoms: _115  and  _116
REMARK   50  A    between atoms: _118  and  _120
REMARK   51  A    between atoms: _120  and  _121
REMARK   52  A    between atoms: _120  and  _123
REMARK   53  A    between atoms: _123  and  _124
REMARK   54  A    between atoms: _126  and  _128
REMARK   55  A    between atoms: _128  and  _129
REMARK   56  A    between atoms: _128  and  _131
REMARK   57  A    between atoms: _131  and  _132
REMARK   58  A    between atoms: _135  and  _137
REMARK   59  A    between atoms: _137  and  _138
REMARK   60  A    between atoms: _137  and  _140
REMARK   61  A    between atoms: _140  and  _141
REMARK   62  A    between atoms: _151  and  _153
REMARK   63  A    between atoms: _153  and  _154
REMARK   64  A    between atoms: _153  and  _156
REMARK   65  A    between atoms: _156  and  _157
REMARK   66  A    between atoms: _159  and  _161
REMARK   67  A    between atoms: _161  and  _162
REMARK   68  A    between atoms: _161  and  _164
REMARK   69  A    between atoms: _164  and  _165
REMARK   70  A    between atoms: _168  and  _170
REMARK   71  A    between atoms: _170  and  _171
REMARK   72  A    between atoms: _170  and  _173
REMARK   73  A    between atoms: _173  and  _174
REMARK   74  A    between atoms: _176  and  _178
REMARK   75  A    between atoms: _178  and  _179
REMARK   76  A    between atoms: _178  and  _181
REMARK   77  A    between atoms: _181  and  _182
REMARK   78  A    between atoms: _187  and  _188
REMARK   79  A    between atoms: _190  and  _192
REMARK   80  A    between atoms: _192  and  _193
REMARK   81  A    between atoms: _195  and  _197
REMARK   82  A    between atoms: _197  and  _198
REMARK   83  A    between atoms: _197  and  _200
REMARK   84  A    between atoms: _200  and  _201
REMARK   85  A    between atoms: _204  and  _206
REMARK   86  A    between atoms: _206  and  _207
REMARK   87  A    between atoms: _209  and  _211
REMARK   88  A    between atoms: _211  and  _212
REMARK   89  A    between atoms: _211  and  _214
REMARK   90  A    between atoms: _214  and  _215
REMARK   91  A    between atoms: _217  and  _219
REMARK   92  A    between atoms: _219  and  _220
REMARK   93  A    between atoms: _219  and  _222
REMARK   94  A    between atoms: _222  and  _223
REMARK   95  A    between atoms: _225  and  _227
REMARK   96  A    between atoms: _227  and  _228
REMARK   97  A    between atoms: _227  and  _230
REMARK   98  A    between atoms: _230  and  _231
REMARK   99  A    between atoms: _233  and  _235
REMARK  100  A    between atoms: _235  and  _236
REMARK  101  A    between atoms: _235  and  _238
REMARK  102  A    between atoms: _238  and  _239
REMARK  103  A    between atoms: _241  and  _243
REMARK  104  A    between atoms: _243  and  _244
REMARK  105  A    between atoms: _243  and  _246
REMARK  106  A    between atoms: _246  and  _247
REMARK  107  A    between atoms: _249  and  _251
REMARK  108  A    between atoms: _251  and  _252
REMARK  109  A    between atoms: _251  and  _254
REMARK  110  A    between atoms: _254  and  _255
REMARK  111  A    between atoms: _261  and  _263
REMARK  112  A    between atoms: _263  and  _264
REMARK  113  A    between atoms: _263  and  _266
REMARK  114  A    between atoms: _266  and  _267
REMARK  115  A    between atoms: _270  and  _272
REMARK  116  A    between atoms: _272  and  _273
REMARK  117  A    between atoms: _272  and  _275
REMARK  118  A    between atoms: _275  and  _276
REMARK  119  A    between atoms: _276  and  _277
REMARK  120  A    between atoms: _280  and  _282
REMARK  121  A    between atoms: _282  and  _283
REMARK  122  A    between atoms: _282  and  _285
REMARK  123  A    between atoms: _285  and  _286
REMARK  124  A    between atoms: _289  and  _291
REMARK  125  A    between atoms: _291  and  _292
REMARK  126  A    between atoms: _291  and  _294
REMARK  127  A    between atoms: _294  and  _295
REMARK  128  A    between atoms: _297  and  _299
REMARK  129  A    between atoms: _299  and  _300
REMARK  130  A    between atoms: _299  and  _302
REMARK  131  A    between atoms: _302  and  _303
REMARK  132  A    between atoms: _306  and  _308
REMARK  133  A    between atoms: _308  and  _309
REMARK  134  A    between atoms: _308  and  _311
REMARK  135  A    between atoms: _311  and  _312
REMARK  136  A    between atoms: _315  and  _317
REMARK  137  A    between atoms: _317  and  _318
REMARK  138  A    between atoms: _320  and  _322
REMARK  139  A    between atoms: _322  and  _323
REMARK  140  A    between atoms: _322  and  _325
REMARK  141  A    between atoms: _325  and  _326
REMARK  142  A    between atoms: _329  and  _331
REMARK  143  A    between atoms: _331  and  _332
REMARK  144  A    between atoms: _331  and  _334
REMARK  145  A    between atoms: _334  and  _335
REMARK  146  A    between atoms: _338  and  _340
REMARK  147  A    between atoms: _340  and  _341
REMARK  148  A    between atoms: _340  and  _343
REMARK  149  A    between atoms: _343  and  _344
REMARK  150  A    between atoms: _347  and  _349
REMARK  151  A    between atoms: _349  and  _350
REMARK  152  A    between atoms: _353  and  _355
REMARK  153  A    between atoms: _355  and  _356
REMARK  154  A    between atoms: _355  and  _358
REMARK  155  A    between atoms: _358  and  _359
REMARK  156  A    between atoms: _362  and  _364
REMARK  157  A    between atoms: _364  and  _365
REMARK  158  A    between atoms: _364  and  _367
REMARK  159  A    between atoms: _367  and  _368
REMARK  160  A    between atoms: _371  and  _373
REMARK  161  A    between atoms: _373  and  _374
REMARK  162  A    between atoms: _373  and  _376
REMARK  163  A    between atoms: _376  and  _377
REMARK  164  A    between atoms: _382  and  _384
REMARK  165  A    between atoms: _384  and  _385
REMARK  166  A    between atoms: _384  and  _387
REMARK  167  A    between atoms: _387  and  _388
REMARK  168  A    between atoms: _391  and  _393
REMARK  169  A    between atoms: _393  and  _394
REMARK  170  A    between atoms: _393  and  _396
REMARK  171  A    between atoms: _396  and  _397
REMARK  172  A    between atoms: _397  and  _398
REMARK  173  A    between atoms: _403  and  _405
REMARK  174  A    between atoms: _405  and  _406
REMARK  175  A    between atoms: _408  and  _410
REMARK  176  A    between atoms: _410  and  _411
REMARK  177  A    between atoms: _410  and  _413
REMARK  178  A    between atoms: _413  and  _414
REMARK  179  A    between atoms: _420  and  _422
REMARK  180  A    between atoms: _422  and  _423
REMARK  181  A    between atoms: _425  and  _427
REMARK  182  A    between atoms: _427  and  _428
REMARK  183  A    between atoms: _427  and  _430
REMARK  184  A    between atoms: _430  and  _431
REMARK  185  A    between atoms: _434  and  _436
REMARK  186  A    between atoms: _436  and  _437
REMARK  187  A    between atoms: _440  and  _442
REMARK  188  A    between atoms: _442  and  _443
REMARK  189  A    between atoms: _442  and  _445
REMARK  190  A    between atoms: _445  and  _446
REMARK  191  A    between atoms: _449  and  _451
REMARK  192  A    between atoms: _451  and  _452
REMARK  193  A    between atoms: _451  and  _454
REMARK  194  A    between atoms: _454  and  _455
REMARK  195  A    between atoms: _458  and  _460
REMARK  196  A    between atoms: _460  and  _461
REMARK  197  A    between atoms: _463  and  _465
REMARK  198  A    between atoms: _465  and  _466
REMARK  199  A    between atoms: _465  and  _468
REMARK  200  A    between atoms: _468  and  _469
REMARK  201  A    between atoms: _472  and  _474
REMARK  202  A    between atoms: _474  and  _475
REMARK  203  A    between atoms: _474  and  _477
REMARK  204  A    between atoms: _477  and  _478
REMARK  205  A    between atoms: _481  and  _483
REMARK  206  A    between atoms: _483  and  _484
REMARK  207  A    between atoms: _483  and  _486
REMARK  208  A    between atoms: _486  and  _487
REMARK  209  A    between atoms: _490  and  _492
REMARK  210  A    between atoms: _492  and  _493
REMARK  211  A    between atoms: _492  and  _495
REMARK  212  A    between atoms: _495  and  _496
REMARK  213  A    between atoms: _499  and  _501
REMARK  214  A    between atoms: _501  and  _502
REMARK  215  A    between atoms: _501  and  _504
REMARK  216  A    between atoms: _504  and  _505
REMARK  217  A    between atoms: _510  and  _511
REMARK  218  A    between atoms: _513  and  _515
REMARK  219  A    between atoms: _515  and  _516
REMARK  220  A    between atoms: _515  and  _518
REMARK  221  A    between atoms: _521  and  _523
REMARK  222  A    between atoms: _523  and  _524
REMARK  223  A    between atoms: _526  and  _528
REMARK  224  A    between atoms: _528  and  _529
REMARK  225  A    between atoms: _528  and  _531
REMARK  226  A    between atoms: _531  and  _532
REMARK  227  A    between atoms: _538  and  _540
REMARK  228  A    between atoms: _540  and  _541
REMARK  229  A    between atoms: _543  and  _545
REMARK  230  A    between atoms: _545  and  _546
REMARK  231  A    between atoms: _545  and  _548
REMARK  232  A    between atoms: _548  and  _549
REMARK  233  A    between atoms: _555  and  _557
REMARK  234  A    between atoms: _557  and  _558
REMARK  235  A    between atoms: _560  and  _562
REMARK  236  A    between atoms: _562  and  _563
REMARK  237  A    between atoms: _565  and  _567
REMARK  238  A    between atoms: _567  and  _568
REMARK  239  A    between atoms: _567  and  _570
REMARK  240  A    between atoms: _570  and  _571
REMARK  241  A    between atoms: _571  and  _572
REMARK  242  A    between atoms: _577  and  _579
REMARK  243  A    between atoms: _579  and  _580
REMARK  244  A    between atoms: _579  and  _582
REMARK  245  A    between atoms: _582  and  _583
REMARK  246  A    between atoms: _585  and  _587
REMARK  247  A    between atoms: _587  and  _588
REMARK  248  A    between atoms: _587  and  _590
REMARK  249  A    between atoms: _590  and  _591
REMARK  250  A    between atoms: _593  and  _595
REMARK  251  A    between atoms: _595  and  _596
REMARK  252  A    between atoms: _598  and  _600
REMARK  253  A    between atoms: _600  and  _601
REMARK  254  A    between atoms: _600  and  _603
REMARK  255  A    between atoms: _603  and  _604
REMARK  256  A    between atoms: _607  and  _609
REMARK  257  A    between atoms: _609  and  _610
REMARK  258  A    between atoms: _612  and  _614
REMARK  259  A    between atoms: _614  and  _615
REMARK  260  A    between atoms: _614  and  _617
REMARK  261  A    between atoms: _617  and  _618
REMARK  262  A    between atoms: _621  and  _623
REMARK  263  A    between atoms: _623  and  _624
REMARK  264  A    between atoms: _623  and  _626
REMARK  265  A    between atoms: _626  and  _627
REMARK  266  A    between atoms: _632  and  _634
REMARK  267  A    between atoms: _634  and  _635
REMARK  268  A    between atoms: _634  and  _637
REMARK  269  A    between atoms: _637  and  _638
REMARK  270  A    between atoms: _641  and  _643
REMARK  271  A    between atoms: _643  and  _644
REMARK  272  A    between atoms: _643  and  _646
REMARK  273  A    between atoms: _646  and  _647
REMARK  274  A    between atoms: _653  and  _655
REMARK  275  A    between atoms: _655  and  _656
REMARK  276  A    between atoms: _658  and  _660
REMARK  277  A    between atoms: _660  and  _661
REMARK  278  A    between atoms: _660  and  _663
REMARK  279  A    between atoms: _663  and  _664
REMARK                            x       y       z     vdW  Elec       q    Type
REMARK                         _______ _______ _______ _____ _____    ______ ____
ROOT
ATOM      1  CA  THR A   7       4.112  28.080  13.435  0.00  0.00    +0.176 C 
ENDROOT
BRANCH   1   2
ATOM      2  C   THR A   7       4.297  26.596  13.564  0.00  0.00    +0.243 C 
ATOM      3  N   THR A   8       4.070  25.910  14.696  0.00  0.00    -0.295 N 
ATOM      4  H   THR A   8       3.672  26.387  15.530  0.00  0.00    +0.150 HD
ATOM      5  O   THR A   7       4.762  25.926  12.672  0.00  0.00    -0.273 OA
BRANCH   3   6
ATOM      6  CA  THR A   8       4.385  24.501  14.741  0.00  0.00    +0.176 C 
BRANCH   6   7
ATOM      7  C   THR A   8       3.391  23.584  13.998  0.00  0.00    +0.243 C 
ATOM      8  N   LEU A   9       2.094  23.881  14.052  0.00  0.00    -0.297 N 
ATOM      9  H   LEU A   9       1.806  24.817  14.402  0.00  0.00    +0.150 HD
ATOM     10  O   THR A   8       3.865  22.614  13.453  0.00  0.00    -0.273 OA
BRANCH   8  11
ATOM     11  CA  LEU A   9       1.080  22.948  13.642  0.00  0.00    +0.149 C 
BRANCH  11  12
ATOM     12  C   LEU A   9       0.580  23.318  12.226  0.00  0.00    +0.241 C 
ATOM     13  N   LEU A  10      -0.368  22.568  11.692  0.00  0.00    -0.297 N 
ATOM     14  H   LEU A  10      -0.734  21.803  12.294  0.00  0.00    +0.150 HD
ATOM     15  O   LEU A   9       0.945  24.276  11.601  0.00  0.00    -0.273 OA
BRANCH  13  16
ATOM     16  CA  LEU A  10      -0.966  22.677  10.366  0.00  0.00    +0.149 C 
BRANCH  16  17
ATOM     17  C   LEU A  10      -2.389  23.196  10.635  0.00  0.00    +0.241 C 
ATOM     18  O   LEU A  10      -3.132  22.417  11.198  0.00  0.00    -0.273 OA
ATOM     19  N   TYR A  11      -2.755  24.420  10.268  0.00  0.00    -0.298 N 
ATOM     20  H   TYR A  11      -2.122  25.026   9.707  0.00  0.00    +0.150 HD
BRANCH  19  21
ATOM     21  CA  TYR A  11      -4.090  24.888  10.684  0.00  0.00    +0.141 C 
BRANCH  21  22
ATOM     22  C   TYR A  11      -4.880  25.103   9.361  0.00  0.00    +0.227 C 
ATOM     23  O   TYR A  11      -4.367  25.866   8.508  0.00  0.00    -0.286 OA
ENDBRANCH  21  22
BRANCH  21  24
ATOM     24  CB  TYR A  11      -3.884  26.307  11.276  0.00  0.00    +0.054 C 
BRANCH  24  25
ATOM     25  CG  TYR A  11      -3.387  26.231  12.682  0.00  0.00    -0.020 A 
ATOM     26  CD2 TYR A  11      -4.214  25.947  13.763  0.00  0.00    -0.001 A 
ATOM     27  CE2 TYR A  11      -3.735  25.890  15.118  0.00  0.00    +0.036 A 
ATOM     28  CZ  TYR A  11      -2.346  26.128  15.302  0.00  0.00    +0.134 A 
ATOM     29  CE1 TYR A  11      -1.464  26.368  14.255  0.00  0.00    +0.036 A 
ATOM     30  CD1 TYR A  11      -2.007  26.447  12.917  0.00  0.00    -0.001 A 
BRANCH  28  31
ATOM     31  OH  TYR A  11      -1.908  26.081  16.578  0.00  0.00    -0.506 OA
ATOM     32  HH  TYR A  11      -2.672  25.901  17.181  0.00  0.00    +0.292 HD
ENDBRANCH  28  31
ENDBRANCH  24  25
ENDBRANCH  21  24
ENDBRANCH  19  21
ENDBRANCH  16  17
BRANCH  16  33
ATOM     33  CB  LEU A  10      -0.958  21.318   9.652  0.00  0.00    +0.029 C 
BRANCH  33  34
ATOM     34  CG  LEU A  10      -1.815  21.246   8.394  0.00  0.00    +0.002 C 
ATOM     35  CD2 LEU A  10      -1.416  19.885   7.693  0.00  0.00    +0.000 C 
ATOM     36  CD1 LEU A  10      -1.493  22.534   7.566  0.00  0.00    +0.000 C 
ENDBRANCH  33  34
ENDBRANCH  16  33
ENDBRANCH  13  16
ENDBRANCH  11  12
BRANCH  11  37
ATOM     37  CB  LEU A   9      -0.135  23.004  14.547  0.00  0.00    +0.029 C 
BRANCH  37  38
ATOM     38  CG  LEU A   9       0.293  22.568  15.963  0.00  0.00    +0.002 C 
ATOM     39  CD2 LEU A   9      -0.891  22.375  16.884  0.00  0.00    +0.000 C 
ATOM     40  CD1 LEU A   9       1.233  21.372  16.025  0.00  0.00    +0.000 C 
ENDBRANCH  37  38
ENDBRANCH  11  37
ENDBRANCH   8  11
ENDBRANCH   6   7
BRANCH   6  41
ATOM     41  CB  THR A   8       4.118  24.183  16.217  0.00  0.00    +0.137 C 
ATOM     42  CG2 THR A   8       4.533  22.785  16.487  0.00  0.00    +0.034 C 
BRANCH  41  43
ATOM     43  OG1 THR A   8       4.907  25.085  17.010  0.00  0.00    -0.382 OA
ATOM     44  HG1 THR A   8       5.866  24.957  16.798  0.00  0.00    +0.210 HD
ENDBRANCH  41  43
ENDBRANCH   6  41
ENDBRANCH   3   6
ENDBRANCH   1   2
BRANCH   1  47
ATOM     45  C   GLY A   6       6.266  29.396  13.418  0.00  0.00    +0.243 C 
ATOM     46  O   GLY A   6       6.114  29.679  14.599  0.00  0.00    -0.273 OA
ATOM     47  N   THR A   7       5.385  28.624  12.796  0.00  0.00    -0.295 N 
ATOM     48  H   THR A   7       5.575  28.373  11.805  0.00  0.00    +0.150 HD
BRANCH  45  49
ATOM     49  CA  GLY A   6       7.574  29.830  12.708  0.00  0.00    +0.176 C 
BRANCH  49  52
ATOM     50  C   THR A   5       8.131  28.185  10.945  0.00  0.00    +0.243 C 
ATOM     51  O   THR A   5       8.596  27.363  11.757  0.00  0.00    -0.273 OA
ATOM     52  N   GLY A   6       7.635  29.335  11.294  0.00  0.00    -0.295 N 
ATOM     53  H   GLY A   6       7.257  29.950  10.546  0.00  0.00    +0.150 HD
BRANCH  50  54
ATOM     54  CA  THR A   5       8.267  27.904   9.429  0.00  0.00    +0.176 C 
BRANCH  54  57
ATOM     55  C   ASP A   4       6.017  28.552   8.798  0.00  0.00    +0.241 C 
ATOM     56  O   ASP A   4       5.472  27.733   9.634  0.00  0.00    -0.273 OA
ATOM     57  N   THR A   5       7.329  28.727   8.651  0.00  0.00    -0.295 N 
ATOM     58  H   THR A   5       7.689  29.443   7.988  0.00  0.00    +0.150 HD
BRANCH  55  59
ATOM     59  CA  ASP A   4       5.210  29.489   7.958  0.00  0.00    +0.160 C 
BRANCH  59  61
ATOM     60  C   ALA A   3       4.813  29.459   5.542  0.00  0.00    +0.241 C 
ATOM     61  N   ASP A   4       4.631  28.932   6.759  0.00  0.00    -0.297 N 
ATOM     62  H   ASP A   4       4.043  28.079   6.845  0.00  0.00    +0.150 HD
ATOM     63  O   ALA A   3       5.491  30.440   5.350  0.00  0.00    -0.273 OA
BRANCH  60  64
ATOM     64  CA  ALA A   3       3.970  28.836   4.455  0.00  0.00    +0.149 C 
ATOM     65  CB  ALA A   3       4.841  28.362   3.265  0.00  0.00    +0.031 C 
BRANCH  64  68
ATOM     66  C   ILE A   2       1.729  29.669   4.659  0.00  0.00    +0.241 C 
ATOM     67  O   ILE A   2       1.338  28.895   5.526  0.00  0.00    -0.273 OA
ATOM     68  N   ALA A   3       2.899  29.713   4.031  0.00  0.00    -0.297 N 
ATOM     69  H   ALA A   3       3.044  30.373   3.240  0.00  0.00    +0.150 HD
BRANCH  66  70
ATOM     70  CA  ILE A   2       0.791  30.803   4.232  0.00  0.00    +0.148 C 
BRANCH  70  72
ATOM     71  C   GLY A   1      -1.278  30.208   3.151  0.00  0.00    +0.240 C 
ATOM     72  N   ILE A   2      -0.570  30.278   4.270  0.00  0.00    -0.297 N 
ATOM     73  H   ILE A   2      -0.983  29.960   5.170  0.00  0.00    +0.150 HD
ATOM     74  O   GLY A   1      -0.833  30.604   2.112  0.00  0.00    -0.274 OA
BRANCH  71  75
ATOM     75  CA  GLY A   1      -2.707  29.580   3.295  0.00  0.00    +0.169 C 
BRANCH  75  76
ATOM     76  N   GLY A   1      -3.320  29.735   1.959  0.00  0.00    -0.236 NA
ATOM     77  H   GLY A   1      -2.750  29.818   1.093  0.00  0.00    +0.142 HD
ENDBRANCH  75  76
ENDBRANCH  71  75
ENDBRANCH  70  72
BRANCH  70  78
ATOM     78  CB  ILE A   2       0.960  32.029   5.158  0.00  0.00    +0.027 C 
ATOM     79  CG2 ILE A   2      -0.087  33.091   4.716  0.00  0.00    +0.002 C 
BRANCH  78  80
ATOM     80  CG1 ILE A   2       0.764  31.649   6.584  0.00  0.00    +0.002 C 
ATOM     81  CD1 ILE A   2       1.477  32.691   7.484  0.00  0.00    +0.000 C 
ENDBRANCH  78  80
ENDBRANCH  70  78
ENDBRANCH  66  70
ENDBRANCH  64  68
ENDBRANCH  60  64
ENDBRANCH  59  61
BRANCH  59  82
ATOM     82  CB  ASP A   4       4.029  29.980   8.845  0.00  0.00    +0.143 C 
BRANCH  82  83
ATOM     83  CG  ASP A   4       4.515  30.880  10.018  0.00  0.00    +0.367 C 
ATOM     84  OD2 ASP A   4       3.698  31.351  10.814  0.00  0.00    -0.246 OA
ATOM     85  OD1 ASP A   4       5.680  31.071  10.251  0.00  0.00    -0.246 OA
ENDBRANCH  82  83
ENDBRANCH  59  82
ENDBRANCH  55  59
ENDBRANCH  54  57
BRANCH  54  86
ATOM     86  CB  THR A   5       9.752  28.032   9.026  0.00  0.00    +0.137 C 
ATOM     87  CG2 THR A   5       9.965  27.494   7.681  0.00  0.00    +0.034 C 
BRANCH  86  88
ATOM     88  OG1 THR A   5      10.137  29.405   9.077  0.00  0.00    -0.382 OA
ATOM     89  HG1 THR A   5      10.012  29.748   9.997  0.00  0.00    +0.210 HD
ENDBRANCH  86  88
ENDBRANCH  54  86
ENDBRANCH  50  54
ENDBRANCH  49  52
ENDBRANCH  45  49
ENDBRANCH   1  47
BRANCH   1  90
ATOM     90  CB  THR A   7       2.882  28.469  12.563  0.00  0.00    +0.137 C 
ATOM     91  CG2 THR A   7       1.659  27.815  13.155  0.00  0.00    +0.034 C 
BRANCH  90  92
ATOM     92  OG1 THR A   7       2.685  29.915  12.779  0.00  0.00    -0.382 OA
ATOM     93  HG1 THR A   7       3.498  30.404  12.496  0.00  0.00    +0.210 HD
ENDBRANCH  90  92
ENDBRANCH   1  90
TORSDOF 39
REMARK  Name = ../refined-set-2016/4er1/4er1_pocket.pdb
REMARK  279 active torsions:
REMARK  status: ('A' for Active; 'I' for Inactive)
REMARK    1  A    between atoms: _1  and  _3
REMARK    2  A    between atoms: _3  and  _4
REMARK    3  A    between atoms: _3  and  _6
REMARK    4  A    between atoms: _6  and  _7
REMARK    5  A    between atoms: _10  and  _12
REMARK    6  A    between atoms: _12  and  _13
REMARK    7  A    between atoms: _12  and  _15
REMARK    8  A    between atoms: _15  and  _16
REMARK    9  A    between atoms: _19  and  _21
REMARK   10  A    between atoms: _21  and  _22
REMARK   11  A    between atoms: _21  and  _24
REMARK   12  A    between atoms: _24  and  _25
REMARK   13  A    between atoms: _28  and  _30
REMARK   14  A    between atoms: _30  and  _31
REMARK   15  A    between atoms: _30  and  _33
REMARK   16  A    between atoms: _33  and  _34
REMARK   17  A    between atoms: _37  and  _39
REMARK   18  A    between atoms: _39  and  _40
REMARK   19  A    between atoms: _39  and  _42
REMARK   20  A    between atoms: _42  and  _43
REMARK   21  A    between atoms: _46  and  _48
REMARK   22  A    between atoms: _48  and  _49
REMARK   23  A    between atoms: _52  and  _54
REMARK   24  A    between atoms: _54  and  _55
REMARK   25  A    between atoms: _54  and  _57
REMARK   26  A    between atoms: _57  and  _58
REMARK   27  A    between atoms: _63  and  _64
REMARK   28  A    between atoms: _66  and  _68
REMARK   29  A    between atoms: _68  and  _69
REMARK   30  A    between atoms: _68  and  _71
REMARK   31  A    between atoms: _71  and  _72
REMARK   32  A    between atoms: _75  and  _77
REMARK   33  A    between atoms: _77  and  _78
REMARK   34  A    between atoms: _77  and  _80
REMARK   35  A    between atoms: _80  and  _81
REMARK   36  A    between atoms: _87  and  _89
REMARK   37  A    between atoms: _89  and  _90
REMARK   38  A    between atoms: _89  and  _92
REMARK   39  A    between atoms: _92  and  _93
REMARK   40  A    between atoms: _96  and  _98
REMARK   41  A    between atoms: _98  and  _99
REMARK   42  A    between atoms: _98  and  _101
REMARK   43  A    between atoms: _101  and  _102
REMARK   44  A    between atoms: _105  and  _107
REMARK   45  A    between atoms: _107  and  _108
REMARK   46  A    between atoms: _110  and  _112
REMARK   47  A    between atoms: _112  and  _113
REMARK   48  A    between atoms: _112  and  _115
REMARK   49  A    between atoms: _115  and  _116
REMARK   50  A    between atoms: _118  and  _120
REMARK   51  A    between atoms: _120  and  _121
REMARK   52  A    between atoms: _120  and  _123
REMARK   53  A    between atoms: _123  and  _124
REMARK   54  A    between atoms: _126  and  _128
REMARK   55  A    between atoms: _128  and  _129
REMARK   56  A    between atoms: _128  and  _131
REMARK   57  A    between atoms: _131  and  _132
REMARK   58  A    between atoms: _135  and  _137
REMARK   59  A    between atoms: _137  and  _138
REMARK   60  A    between atoms: _137  and  _140
REMARK   61  A    between atoms: _140  and  _141
REMARK   62  A    between atoms: _151  and  _153
REMARK   63  A    between atoms: _153  and  _154
REMARK   64  A    between atoms: _153  and  _156
REMARK   65  A    between atoms: _156  and  _157
REMARK   66  A    between atoms: _159  and  _161
REMARK   67  A    between atoms: _161  and  _162
REMARK   68  A    between atoms: _161  and  _164
REMARK   69  A    between atoms: _164  and  _165
REMARK   70  A    between atoms: _168  and  _170
REMARK   71  A    between atoms: _170  and  _171
REMARK   72  A    between atoms: _170  and  _173
REMARK   73  A    between atoms: _173  and  _174
REMARK   74  A    between atoms: _176  and  _178
REMARK   75  A    between atoms: _178  and  _179
REMARK   76  A    between atoms: _178  and  _181
REMARK   77  A    between atoms: _181  and  _182
REMARK   78  A    between atoms: _187  and  _188
REMARK   79  A    between atoms: _190  and  _192
REMARK   80  A    between atoms: _192  and  _193
REMARK   81  A    between atoms: _195  and  _197
REMARK   82  A    between atoms: _197  and  _198
REMARK   83  A    between atoms: _197  and  _200
REMARK   84  A    between atoms: _200  and  _201
REMARK   85  A    between atoms: _204  and  _206
REMARK   86  A    between atoms: _206  and  _207
REMARK   87  A    between atoms: _209  and  _211
REMARK   88  A    between atoms: _211  and  _212
REMARK   89  A    between atoms: _211  and  _214
REMARK   90  A    between atoms: _214  and  _215
REMARK   91  A    between atoms: _217  and  _219
REMARK   92  A    between atoms: _219  and  _220
REMARK   93  A    between atoms: _219  and  _222
REMARK   94  A    between atoms: _222  and  _223
REMARK   95  A    between atoms: _225  and  _227
REMARK   96  A    between atoms: _227  and  _228
REMARK   97  A    between atoms: _227  and  _230
REMARK   98  A    between atoms: _230  and  _231
REMARK   99  A    between atoms: _233  and  _235
REMARK  100  A    between atoms: _235  and  _236
REMARK  101  A    between atoms: _235  and  _238
REMARK  102  A    between atoms: _238  and  _239
REMARK  103  A    between atoms: _241  and  _243
REMARK  104  A    between atoms: _243  and  _244
REMARK  105  A    between atoms: _243  and  _246
REMARK  106  A    between atoms: _246  and  _247
REMARK  107  A    between atoms: _249  and  _251
REMARK  108  A    between atoms: _251  and  _252
REMARK  109  A    between atoms: _251  and  _254
REMARK  110  A    between atoms: _254  and  _255
REMARK  111  A    between atoms: _261  and  _263
REMARK  112  A    between atoms: _263  and  _264
REMARK  113  A    between atoms: _263  and  _266
REMARK  114  A    between atoms: _266  and  _267
REMARK  115  A    between atoms: _270  and  _272
REMARK  116  A    between atoms: _272  and  _273
REMARK  117  A    between atoms: _272  and  _275
REMARK  118  A    between atoms: _275  and  _276
REMARK  119  A    between atoms: _276  and  _277
REMARK  120  A    between atoms: _280  and  _282
REMARK  121  A    between atoms: _282  and  _283
REMARK  122  A    between atoms: _282  and  _285
REMARK  123  A    between atoms: _285  and  _286
REMARK  124  A    between atoms: _289  and  _291
REMARK  125  A    between atoms: _291  and  _292
REMARK  126  A    between atoms: _291  and  _294
REMARK  127  A    between atoms: _294  and  _295
REMARK  128  A    between atoms: _297  and  _299
REMARK  129  A    between atoms: _299  and  _300
REMARK  130  A    between atoms: _299  and  _302
REMARK  131  A    between atoms: _302  and  _303
REMARK  132  A    between atoms: _306  and  _308
REMARK  133  A    between atoms: _308  and  _309
REMARK  134  A    between atoms: _308  and  _311
REMARK  135  A    between atoms: _311  and  _312
REMARK  136  A    between atoms: _315  and  _317
REMARK  137  A    between atoms: _317  and  _318
REMARK  138  A    between atoms: _320  and  _322
REMARK  139  A    between atoms: _322  and  _323
REMARK  140  A    between atoms: _322  and  _325
REMARK  141  A    between atoms: _325  and  _326
REMARK  142  A    between atoms: _329  and  _331
REMARK  143  A    between atoms: _331  and  _332
REMARK  144  A    between atoms: _331  and  _334
REMARK  145  A    between atoms: _334  and  _335
REMARK  146  A    between atoms: _338  and  _340
REMARK  147  A    between atoms: _340  and  _341
REMARK  148  A    between atoms: _340  and  _343
REMARK  149  A    between atoms: _343  and  _344
REMARK  150  A    between atoms: _347  and  _349
REMARK  151  A    between atoms: _349  and  _350
REMARK  152  A    between atoms: _353  and  _355
REMARK  153  A    between atoms: _355  and  _356
REMARK  154  A    between atoms: _355  and  _358
REMARK  155  A    between atoms: _358  and  _359
REMARK  156  A    between atoms: _362  and  _364
REMARK  157  A    between atoms: _364  and  _365
REMARK  158  A    between atoms: _364  and  _367
REMARK  159  A    between atoms: _367  and  _368
REMARK  160  A    between atoms: _371  and  _373
REMARK  161  A    between atoms: _373  and  _374
REMARK  162  A    between atoms: _373  and  _376
REMARK  163  A    between atoms: _376  and  _377
REMARK  164  A    between atoms: _382  and  _384
REMARK  165  A    between atoms: _384  and  _385
REMARK  166  A    between atoms: _384  and  _387
REMARK  167  A    between atoms: _387  and  _388
REMARK  168  A    between atoms: _391  and  _393
REMARK  169  A    between atoms: _393  and  _394
REMARK  170  A    between atoms: _393  and  _396
REMARK  171  A    between atoms: _396  and  _397
REMARK  172  A    between atoms: _397  and  _398
REMARK  173  A    between atoms: _403  and  _405
REMARK  174  A    between atoms: _405  and  _406
REMARK  175  A    between atoms: _408  and  _410
REMARK  176  A    between atoms: _410  and  _411
REMARK  177  A    between atoms: _410  and  _413
REMARK  178  A    between atoms: _413  and  _414
REMARK  179  A    between atoms: _420  and  _422
REMARK  180  A    between atoms: _422  and  _423
REMARK  181  A    between atoms: _425  and  _427
REMARK  182  A    between atoms: _427  and  _428
REMARK  183  A    between atoms: _427  and  _430
REMARK  184  A    between atoms: _430  and  _431
REMARK  185  A    between atoms: _434  and  _436
REMARK  186  A    between atoms: _436  and  _437
REMARK  187  A    between atoms: _440  and  _442
REMARK  188  A    between atoms: _442  and  _443
REMARK  189  A    between atoms: _442  and  _445
REMARK  190  A    between atoms: _445  and  _446
REMARK  191  A    between atoms: _449  and  _451
REMARK  192  A    between atoms: _451  and  _452
REMARK  193  A    between atoms: _451  and  _454
REMARK  194  A    between atoms: _454  and  _455
REMARK  195  A    between atoms: _458  and  _460
REMARK  196  A    between atoms: _460  and  _461
REMARK  197  A    between atoms: _463  and  _465
REMARK  198  A    between atoms: _465  and  _466
REMARK  199  A    between atoms: _465  and  _468
REMARK  200  A    between atoms: _468  and  _469
REMARK  201  A    between atoms: _472  and  _474
REMARK  202  A    between atoms: _474  and  _475
REMARK  203  A    between atoms: _474  and  _477
REMARK  204  A    between atoms: _477  and  _478
REMARK  205  A    between atoms: _481  and  _483
REMARK  206  A    between atoms: _483  and  _484
REMARK  207  A    between atoms: _483  and  _486
REMARK  208  A    between atoms: _486  and  _487
REMARK  209  A    between atoms: _490  and  _492
REMARK  210  A    between atoms: _492  and  _493
REMARK  211  A    between atoms: _492  and  _495
REMARK  212  A    between atoms: _495  and  _496
REMARK  213  A    between atoms: _499  and  _501
REMARK  214  A    between atoms: _501  and  _502
REMARK  215  A    between atoms: _501  and  _504
REMARK  216  A    between atoms: _504  and  _505
REMARK  217  A    between atoms: _510  and  _511
REMARK  218  A    between atoms: _513  and  _515
REMARK  219  A    between atoms: _515  and  _516
REMARK  220  A    between atoms: _515  and  _518
REMARK  221  A    between atoms: _521  and  _523
REMARK  222  A    between atoms: _523  and  _524
REMARK  223  A    between atoms: _526  and  _528
REMARK  224  A    between atoms: _528  and  _529
REMARK  225  A    between atoms: _528  and  _531
REMARK  226  A    between atoms: _531  and  _532
REMARK  227  A    between atoms: _538  and  _540
REMARK  228  A    between atoms: _540  and  _541
REMARK  229  A    between atoms: _543  and  _545
REMARK  230  A    between atoms: _545  and  _546
REMARK  231  A    between atoms: _545  and  _548
REMARK  232  A    between atoms: _548  and  _549
REMARK  233  A    between atoms: _555  and  _557
REMARK  234  A    between atoms: _557  and  _558
REMARK  235  A    between atoms: _560  and  _562
REMARK  236  A    between atoms: _562  and  _563
REMARK  237  A    between atoms: _565  and  _567
REMARK  238  A    between atoms: _567  and  _568
REMARK  239  A    between atoms: _567  and  _570
REMARK  240  A    between atoms: _570  and  _571
REMARK  241  A    between atoms: _571  and  _572
REMARK  242  A    between atoms: _577  and  _579
REMARK  243  A    between atoms: _579  and  _580
REMARK  244  A    between atoms: _579  and  _582
REMARK  245  A    between atoms: _582  and  _583
REMARK  246  A    between atoms: _585  and  _587
REMARK  247  A    between atoms: _587  and  _588
REMARK  248  A    between atoms: _587  and  _590
REMARK  249  A    between atoms: _590  and  _591
REMARK  250  A    between atoms: _593  and  _595
REMARK  251  A    between atoms: _595  and  _596
REMARK  252  A    between atoms: _598  and  _600
REMARK  253  A    between atoms: _600  and  _601
REMARK  254  A    between atoms: _600  and  _603
REMARK  255  A    between atoms: _603  and  _604
REMARK  256  A    between atoms: _607  and  _609
REMARK  257  A    between atoms: _609  and  _610
REMARK  258  A    between atoms: _612  and  _614
REMARK  259  A    between atoms: _614  and  _615
REMARK  260  A    between atoms: _614  and  _617
REMARK  261  A    between atoms: _617  and  _618
REMARK  262  A    between atoms: _621  and  _623
REMARK  263  A    between atoms: _623  and  _624
REMARK  264  A    between atoms: _623  and  _626
REMARK  265  A    between atoms: _626  and  _627
REMARK  266  A    between atoms: _632  and  _634
REMARK  267  A    between atoms: _634  and  _635
REMARK  268  A    between atoms: _634  and  _637
REMARK  269  A    between atoms: _637  and  _638
REMARK  270  A    between atoms: _641  and  _643
REMARK  271  A    between atoms: _643  and  _644
REMARK  272  A    between atoms: _643  and  _646
REMARK  273  A    between atoms: _646  and  _647
REMARK  274  A    between atoms: _653  and  _655
REMARK  275  A    between atoms: _655  and  _656
REMARK  276  A    between atoms: _658  and  _660
REMARK  277  A    between atoms: _660  and  _661
REMARK  278  A    between atoms: _660  and  _663
REMARK  279  A    between atoms: _663  and  _664
REMARK                            x       y       z     vdW  Elec       q    Type
REMARK                         _______ _______ _______ _____ _____    ______ ____
ROOT
ATOM      1  C   VAL A   1      -6.809  22.434  24.697  0.00  0.00    +0.238 C 
ATOM      2  O   VAL A   1      -5.712  22.756  24.290  0.00  0.00    -0.274 OA
ATOM      3  N   GLY A   2      -7.918  22.690  24.017  0.00  0.00    -0.297 N 
ATOM      4  H   GLY A   2      -8.821  22.221  24.234  0.00  0.00    +0.150 HD
ENDROOT
BRANCH   1   5
ATOM      5  CA  VAL A   1      -6.937  21.484  25.892  0.00  0.00    +0.145 C 
BRANCH   5   6
ATOM      6  CB  VAL A   1      -6.562  20.024  25.452  0.00  0.00    +0.025 C 
ATOM      7  CG2 VAL A   1      -6.916  18.994  26.559  0.00  0.00    +0.002 C 
ATOM      8  CG1 VAL A   1      -5.039  19.836  25.328  0.00  0.00    +0.002 C 
ENDBRANCH   5   6
BRANCH   5   9
ATOM      9  N   VAL A   1      -8.352  21.527  26.256  0.00  0.00    -0.238 NA
ATOM     10  H   VAL A   1      -9.057  21.008  25.694  0.00  0.00    +0.142 HD
ENDBRANCH   5   9
ENDBRANCH   1   5
BRANCH   3  11
ATOM     11  CA  GLY A   2      -7.786  23.708  22.906  0.00  0.00    +0.163 C 
BRANCH  11  12
ATOM     12  C   GLY A   2      -7.861  23.090  21.520  0.00  0.00    +0.229 C 
ATOM     13  O   GLY A   2      -7.495  23.661  20.479  0.00  0.00    -0.286 OA
ENDBRANCH  11  12
ENDBRANCH   3  11
TORSDOF 5
REMARK  Name = ../refined-set-2016/4er1/4er1_pocket.pdb
REMARK  279 active torsions:
REMARK  status: ('A' for Active; 'I' for Inactive)
REMARK    1  A    between atoms: _1  and  _3
REMARK    2  A    between atoms: _3  and  _4
REMARK    3  A    between atoms: _3  and  _6
REMARK    4  A    between atoms: _6  and  _7
REMARK    5  A    between atoms: _10  and  _12
REMARK    6  A    between atoms: _12  and  _13
REMARK    7  A    between atoms: _12  and  _15
REMARK    8  A    between atoms: _15  and  _16
REMARK    9  A    between atoms: _19  and  _21
REMARK   10  A    between atoms: _21  and  _22
REMARK   11  A    between atoms: _21  and  _24
REMARK   12  A    between atoms: _24  and  _25
REMARK   13  A    between atoms: _28  and  _30
REMARK   14  A    between atoms: _30  and  _31
REMARK   15  A    between atoms: _30  and  _33
REMARK   16  A    between atoms: _33  and  _34
REMARK   17  A    between atoms: _37  and  _39
REMARK   18  A    between atoms: _39  and  _40
REMARK   19  A    between atoms: _39  and  _42
REMARK   20  A    between atoms: _42  and  _43
REMARK   21  A    between atoms: _46  and  _48
REMARK   22  A    between atoms: _48  and  _49
REMARK   23  A    between atoms: _52  and  _54
REMARK   24  A    between atoms: _54  and  _55
REMARK   25  A    between atoms: _54  and  _57
REMARK   26  A    between atoms: _57  and  _58
REMARK   27  A    between atoms: _63  and  _64
REMARK   28  A    between atoms: _66  and  _68
REMARK   29  A    between atoms: _68  and  _69
REMARK   30  A    between atoms: _68  and  _71
REMARK   31  A    between atoms: _71  and  _72
REMARK   32  A    between atoms: _75  and  _77
REMARK   33  A    between atoms: _77  and  _78
REMARK   34  A    between atoms: _77  and  _80
REMARK   35  A    between atoms: _80  and  _81
REMARK   36  A    between atoms: _87  and  _89
REMARK   37  A    between atoms: _89  and  _90
REMARK   38  A    between atoms: _89  and  _92
REMARK   39  A    between atoms: _92  and  _93
REMARK   40  A    between atoms: _96  and  _98
REMARK   41  A    between atoms: _98  and  _99
REMARK   42  A    between atoms: _98  and  _101
REMARK   43  A    between atoms: _101  and  _102
REMARK   44  A    between atoms: _105  and  _107
REMARK   45  A    between atoms: _107  and  _108
REMARK   46  A    between atoms: _110  and  _112
REMARK   47  A    between atoms: _112  and  _113
REMARK   48  A    between atoms: _112  and  _115
REMARK   49  A    between atoms: _115  and  _116
REMARK   50  A    between atoms: _118  and  _120
REMARK   51  A    between atoms: _120  and  _121
REMARK   52  A    between atoms: _120  and  _123
REMARK   53  A    between atoms: _123  and  _124
REMARK   54  A    between atoms: _126  and  _128
REMARK   55  A    between atoms: _128  and  _129
REMARK   56  A    between atoms: _128  and  _131
REMARK   57  A    between atoms: _131  and  _132
REMARK   58  A    between atoms: _135  and  _137
REMARK   59  A    between atoms: _137  and  _138
REMARK   60  A    between atoms: _137  and  _140
REMARK   61  A    between atoms: _140  and  _141
REMARK   62  A    between atoms: _151  and  _153
REMARK   63  A    between atoms: _153  and  _154
REMARK   64  A    between atoms: _153  and  _156
REMARK   65  A    between atoms: _156  and  _157
REMARK   66  A    between atoms: _159  and  _161
REMARK   67  A    between atoms: _161  and  _162
REMARK   68  A    between atoms: _161  and  _164
REMARK   69  A    between atoms: _164  and  _165
REMARK   70  A    between atoms: _168  and  _170
REMARK   71  A    between atoms: _170  and  _171
REMARK   72  A    between atoms: _170  and  _173
REMARK   73  A    between atoms: _173  and  _174
REMARK   74  A    between atoms: _176  and  _178
REMARK   75  A    between atoms: _178  and  _179
REMARK   76  A    between atoms: _178  and  _181
REMARK   77  A    between atoms: _181  and  _182
REMARK   78  A    between atoms: _187  and  _188
REMARK   79  A    between atoms: _190  and  _192
REMARK   80  A    between atoms: _192  and  _193
REMARK   81  A    between atoms: _195  and  _197
REMARK   82  A    between atoms: _197  and  _198
REMARK   83  A    between atoms: _197  and  _200
REMARK   84  A    between atoms: _200  and  _201
REMARK   85  A    between atoms: _204  and  _206
REMARK   86  A    between atoms: _206  and  _207
REMARK   87  A    between atoms: _209  and  _211
REMARK   88  A    between atoms: _211  and  _212
REMARK   89  A    between atoms: _211  and  _214
REMARK   90  A    between atoms: _214  and  _215
REMARK   91  A    between atoms: _217  and  _219
REMARK   92  A    between atoms: _219  and  _220
REMARK   93  A    between atoms: _219  and  _222
REMARK   94  A    between atoms: _222  and  _223
REMARK   95  A    between atoms: _225  and  _227
REMARK   96  A    between atoms: _227  and  _228
REMARK   97  A    between atoms: _227  and  _230
REMARK   98  A    between atoms: _230  and  _231
REMARK   99  A    between atoms: _233  and  _235
REMARK  100  A    between atoms: _235  and  _236
REMARK  101  A    between atoms: _235  and  _238
REMARK  102  A    between atoms: _238  and  _239
REMARK  103  A    between atoms: _241  and  _243
REMARK  104  A    between atoms: _243  and  _244
REMARK  105  A    between atoms: _243  and  _246
REMARK  106  A    between atoms: _246  and  _247
REMARK  107  A    between atoms: _249  and  _251
REMARK  108  A    between atoms: _251  and  _252
REMARK  109  A    between atoms: _251  and  _254
REMARK  110  A    between atoms: _254  and  _255
REMARK  111  A    between atoms: _261  and  _263
REMARK  112  A    between atoms: _263  and  _264
REMARK  113  A    between atoms: _263  and  _266
REMARK  114  A    between atoms: _266  and  _267
REMARK  115  A    between atoms: _270  and  _272
REMARK  116  A    between atoms: _272  and  _273
REMARK  117  A    between atoms: _272  and  _275
REMARK  118  A    between atoms: _275  and  _276
REMARK  119  A    between atoms: _276  and  _277
REMARK  120  A    between atoms: _280  and  _282
REMARK  121  A    between atoms: _282  and  _283
REMARK  122  A    between atoms: _282  and  _285
REMARK  123  A    between atoms: _285  and  _286
REMARK  124  A    between atoms: _289  and  _291
REMARK  125  A    between atoms: _291  and  _292
REMARK  126  A    between atoms: _291  and  _294
REMARK  127  A    between atoms: _294  and  _295
REMARK  128  A    between atoms: _297  and  _299
REMARK  129  A    between atoms: _299  and  _300
REMARK  130  A    between atoms: _299  and  _302
REMARK  131  A    between atoms: _302  and  _303
REMARK  132  A    between atoms: _306  and  _308
REMARK  133  A    between atoms: _308  and  _309
REMARK  134  A    between atoms: _308  and  _311
REMARK  135  A    between atoms: _311  and  _312
REMARK  136  A    between atoms: _315  and  _317
REMARK  137  A    between atoms: _317  and  _318
REMARK  138  A    between atoms: _320  and  _322
REMARK  139  A    between atoms: _322  and  _323
REMARK  140  A    between atoms: _322  and  _325
REMARK  141  A    between atoms: _325  and  _326
REMARK  142  A    between atoms: _329  and  _331
REMARK  143  A    between atoms: _331  and  _332
REMARK  144  A    between atoms: _331  and  _334
REMARK  145  A    between atoms: _334  and  _335
REMARK  146  A    between atoms: _338  and  _340
REMARK  147  A    between atoms: _340  and  _341
REMARK  148  A    between atoms: _340  and  _343
REMARK  149  A    between atoms: _343  and  _344
REMARK  150  A    between atoms: _347  and  _349
REMARK  151  A    between atoms: _349  and  _350
REMARK  152  A    between atoms: _353  and  _355
REMARK  153  A    between atoms: _355  and  _356
REMARK  154  A    between atoms: _355  and  _358
REMARK  155  A    between atoms: _358  and  _359
REMARK  156  A    between atoms: _362  and  _364
REMARK  157  A    between atoms: _364  and  _365
REMARK  158  A    between atoms: _364  and  _367
REMARK  159  A    between atoms: _367  and  _368
REMARK  160  A    between atoms: _371  and  _373
REMARK  161  A    between atoms: _373  and  _374
REMARK  162  A    between atoms: _373  and  _376
REMARK  163  A    between atoms: _376  and  _377
REMARK  164  A    between atoms: _382  and  _384
REMARK  165  A    between atoms: _384  and  _385
REMARK  166  A    between atoms: _384  and  _387
REMARK  167  A    between atoms: _387  and  _388
REMARK  168  A    between atoms: _391  and  _393
REMARK  169  A    between atoms: _393  and  _394
REMARK  170  A    between atoms: _393  and  _396
REMARK  171  A    between atoms: _396  and  _397
REMARK  172  A    between atoms: _397  and  _398
REMARK  173  A    between atoms: _403  and  _405
REMARK  174  A    between atoms: _405  and  _406
REMARK  175  A    between atoms: _408  and  _410
REMARK  176  A    between atoms: _410  and  _411
REMARK  177  A    between atoms: _410  and  _413
REMARK  178  A    between atoms: _413  and  _414
REMARK  179  A    between atoms: _420  and  _422
REMARK  180  A    between atoms: _422  and  _423
REMARK  181  A    between atoms: _425  and  _427
REMARK  182  A    between atoms: _427  and  _428
REMARK  183  A    between atoms: _427  and  _430
REMARK  184  A    between atoms: _430  and  _431
REMARK  185  A    between atoms: _434  and  _436
REMARK  186  A    between atoms: _436  and  _437
REMARK  187  A    between atoms: _440  and  _442
REMARK  188  A    between atoms: _442  and  _443
REMARK  189  A    between atoms: _442  and  _445
REMARK  190  A    between atoms: _445  and  _446
REMARK  191  A    between atoms: _449  and  _451
REMARK  192  A    between atoms: _451  and  _452
REMARK  193  A    between atoms: _451  and  _454
REMARK  194  A    between atoms: _454  and  _455
REMARK  195  A    between atoms: _458  and  _460
REMARK  196  A    between atoms: _460  and  _461
REMARK  197  A    between atoms: _463  and  _465
REMARK  198  A    between atoms: _465  and  _466
REMARK  199  A    between atoms: _465  and  _468
REMARK  200  A    between atoms: _468  and  _469
REMARK  201  A    between atoms: _472  and  _474
REMARK  202  A    between atoms: _474  and  _475
REMARK  203  A    between atoms: _474  and  _477
REMARK  204  A    between atoms: _477  and  _478
REMARK  205  A    between atoms: _481  and  _483
REMARK  206  A    between atoms: _483  and  _484
REMARK  207  A    between atoms: _483  and  _486
REMARK  208  A    between atoms: _486  and  _487
REMARK  209  A    between atoms: _490  and  _492
REMARK  210  A    between atoms: _492  and  _493
REMARK  211  A    between atoms: _492  and  _495
REMARK  212  A    between atoms: _495  and  _496
REMARK  213  A    between atoms: _499  and  _501
REMARK  214  A    between atoms: _501  and  _502
REMARK  215  A    between atoms: _501  and  _504
REMARK  216  A    between atoms: _504  and  _505
REMARK  217  A    between atoms: _510  and  _511
REMARK  218  A    between atoms: _513  and  _515
REMARK  219  A    between atoms: _515  and  _516
REMARK  220  A    between atoms: _515  and  _518
REMARK  221  A    between atoms: _521  and  _523
REMARK  222  A    between atoms: _523  and  _524
REMARK  223  A    between atoms: _526  and  _528
REMARK  224  A    between atoms: _528  and  _529
REMARK  225  A    between atoms: _528  and  _531
REMARK  226  A    between atoms: _531  and  _532
REMARK  227  A    between atoms: _538  and  _540
REMARK  228  A    between atoms: _540  and  _541
REMARK  229  A    between atoms: _543  and  _545
REMARK  230  A    between atoms: _545  and  _546
REMARK  231  A    between atoms: _545  and  _548
REMARK  232  A    between atoms: _548  and  _549
REMARK  233  A    between atoms: _555  and  _557
REMARK  234  A    between atoms: _557  and  _558
REMARK  235  A    between atoms: _560  and  _562
REMARK  236  A    between atoms: _562  and  _563
REMARK  237  A    between atoms: _565  and  _567
REMARK  238  A    between atoms: _567  and  _568
REMARK  239  A    between atoms: _567  and  _570
REMARK  240  A    between atoms: _570  and  _571
REMARK  241  A    between atoms: _571  and  _572
REMARK  242  A    between atoms: _577  and  _579
REMARK  243  A    between atoms: _579  and  _580
REMARK  244  A    between atoms: _579  and  _582
REMARK  245  A    between atoms: _582  and  _583
REMARK  246  A    between atoms: _585  and  _587
REMARK  247  A    between atoms: _587  and  _588
REMARK  248  A    between atoms: _587  and  _590
REMARK  249  A    between atoms: _590  and  _591
REMARK  250  A    between atoms: _593  and  _595
REMARK  251  A    between atoms: _595  and  _596
REMARK  252  A    between atoms: _598  and  _600
REMARK  253  A    between atoms: _600  and  _601
REMARK  254  A    between atoms: _600  and  _603
REMARK  255  A    between atoms: _603  and  _604
REMARK  256  A    between atoms: _607  and  _609
REMARK  257  A    between atoms: _609  and  _610
REMARK  258  A    between atoms: _612  and  _614
REMARK  259  A    between atoms: _614  and  _615
REMARK  260  A    between atoms: _614  and  _617
REMARK  261  A    between atoms: _617  and  _618
REMARK  262  A    between atoms: _621  and  _623
REMARK  263  A    between atoms: _623  and  _624
REMARK  264  A    between atoms: _623  and  _626
REMARK  265  A    between atoms: _626  and  _627
REMARK  266  A    between atoms: _632  and  _634
REMARK  267  A    between atoms: _634  and  _635
REMARK  268  A    between atoms: _634  and  _637
REMARK  269  A    between atoms: _637  and  _638
REMARK  270  A    between atoms: _641  and  _643
REMARK  271  A    between atoms: _643  and  _644
REMARK  272  A    between atoms: _643  and  _646
REMARK  273  A    between atoms: _646  and  _647
REMARK  274  A    between atoms: _653  and  _655
REMARK  275  A    between atoms: _655  and  _656
REMARK  276  A    between atoms: _658  and  _660
REMARK  277  A    between atoms: _660  and  _661
REMARK  278  A    between atoms: _660  and  _663
REMARK  279  A    between atoms: _663  and  _664
REMARK                            x       y       z     vdW  Elec       q    Type
REMARK                         _______ _______ _______ _____ _____    ______ ____
ROOT
ATOM      1  CA  PHE A   1       1.950  15.818  17.943  0.00  0.00    +0.149 C 
ENDROOT
BRANCH   1   2
ATOM      2  C   PHE A   1       2.731  15.443  19.194  0.00  0.00    +0.239 C 
ATOM      3  N   GLY A   2       1.998  15.068  20.197  0.00  0.00    -0.297 N 
ATOM      4  H   GLY A   2       1.033  15.448  20.274  0.00  0.00    +0.150 HD
ATOM      5  O   PHE A   1       3.951  15.542  19.224  0.00  0.00    -0.274 OA
BRANCH   3   6
ATOM      6  CA  GLY A   2       2.476  14.109  21.255  0.00  0.00    +0.163 C 
BRANCH   6   7
ATOM      7  C   GLY A   2       1.568  14.225  22.469  0.00  0.00    +0.229 C 
ATOM      8  O   GLY A   2       0.386  14.567  22.331  0.00  0.00    -0.286 OA
ENDBRANCH   6   7
ENDBRANCH   3   6
ENDBRANCH   1   2
BRANCH   1   9
ATOM      9  N   PHE A   1       1.099  14.764  17.433  0.00  0.00    -0.238 NA
ATOM     10  H   PHE A   1       0.064  14.844  17.499  0.00  0.00    +0.142 HD
ENDBRANCH   1   9
BRANCH   1  11
ATOM     11  CB  PHE A   1       1.331  17.184  18.228  0.00  0.00    +0.053 C 
BRANCH  11  12
ATOM     12  CG  PHE A   1       2.541  18.148  18.122  0.00  0.00    -0.020 A 
ATOM     13  CD2 PHE A   1       3.023  18.985  19.099  0.00  0.00    -0.004 A 
ATOM     14  CE2 PHE A   1       4.129  19.845  18.843  0.00  0.00    -0.000 A 
ATOM     15  CZ  PHE A   1       4.692  19.792  17.563  0.00  0.00    -0.000 A 
ATOM     16  CE1 PHE A   1       4.188  18.959  16.558  0.00  0.00    -0.000 A 
ATOM     17  CD1 PHE A   1       3.092  18.130  16.818  0.00  0.00    -0.004 A 
ENDBRANCH  11  12
ENDBRANCH   1  11
TORSDOF 6
REMARK  Name = ../refined-set-2016/4er1/4er1_pocket.pdb
REMARK  279 active torsions:
REMARK  status: ('A' for Active; 'I' for Inactive)
REMARK    1  A    between atoms: _1  and  _3
REMARK    2  A    between atoms: _3  and  _4
REMARK    3  A    between atoms: _3  and  _6
REMARK    4  A    between atoms: _6  and  _7
REMARK    5  A    between atoms: _10  and  _12
REMARK    6  A    between atoms: _12  and  _13
REMARK    7  A    between atoms: _12  and  _15
REMARK    8  A    between atoms: _15  and  _16
REMARK    9  A    between atoms: _19  and  _21
REMARK   10  A    between atoms: _21  and  _22
REMARK   11  A    between atoms: _21  and  _24
REMARK   12  A    between atoms: _24  and  _25
REMARK   13  A    between atoms: _28  and  _30
REMARK   14  A    between atoms: _30  and  _31
REMARK   15  A    between atoms: _30  and  _33
REMARK   16  A    between atoms: _33  and  _34
REMARK   17  A    between atoms: _37  and  _39
REMARK   18  A    between atoms: _39  and  _40
REMARK   19  A    between atoms: _39  and  _42
REMARK   20  A    between atoms: _42  and  _43
REMARK   21  A    between atoms: _46  and  _48
REMARK   22  A    between atoms: _48  and  _49
REMARK   23  A    between atoms: _52  and  _54
REMARK   24  A    between atoms: _54  and  _55
REMARK   25  A    between atoms: _54  and  _57
REMARK   26  A    between atoms: _57  and  _58
REMARK   27  A    between atoms: _63  and  _64
REMARK   28  A    between atoms: _66  and  _68
REMARK   29  A    between atoms: _68  and  _69
REMARK   30  A    between atoms: _68  and  _71
REMARK   31  A    between atoms: _71  and  _72
REMARK   32  A    between atoms: _75  and  _77
REMARK   33  A    between atoms: _77  and  _78
REMARK   34  A    between atoms: _77  and  _80
REMARK   35  A    between atoms: _80  and  _81
REMARK   36  A    between atoms: _87  and  _89
REMARK   37  A    between atoms: _89  and  _90
REMARK   38  A    between atoms: _89  and  _92
REMARK   39  A    between atoms: _92  and  _93
REMARK   40  A    between atoms: _96  and  _98
REMARK   41  A    between atoms: _98  and  _99
REMARK   42  A    between atoms: _98  and  _101
REMARK   43  A    between atoms: _101  and  _102
REMARK   44  A    between atoms: _105  and  _107
REMARK   45  A    between atoms: _107  and  _108
REMARK   46  A    between atoms: _110  and  _112
REMARK   47  A    between atoms: _112  and  _113
REMARK   48  A    between atoms: _112  and  _115
REMARK   49  A    between atoms: _115  and  _116
REMARK   50  A    between atoms: _118  and  _120
REMARK   51  A    between atoms: _120  and  _121
REMARK   52  A    between atoms: _120  and  _123
REMARK   53  A    between atoms: _123  and  _124
REMARK   54  A    between atoms: _126  and  _128
REMARK   55  A    between atoms: _128  and  _129
REMARK   56  A    between atoms: _128  and  _131
REMARK   57  A    between atoms: _131  and  _132
REMARK   58  A    between atoms: _135  and  _137
REMARK   59  A    between atoms: _137  and  _138
REMARK   60  A    between atoms: _137  and  _140
REMARK   61  A    between atoms: _140  and  _141
REMARK   62  A    between atoms: _151  and  _153
REMARK   63  A    between atoms: _153  and  _154
REMARK   64  A    between atoms: _153  and  _156
REMARK   65  A    between atoms: _156  and  _157
REMARK   66  A    between atoms: _159  and  _161
REMARK   67  A    between atoms: _161  and  _162
REMARK   68  A    between atoms: _161  and  _164
REMARK   69  A    between atoms: _164  and  _165
REMARK   70  A    between atoms: _168  and  _170
REMARK   71  A    between atoms: _170  and  _171
REMARK   72  A    between atoms: _170  and  _173
REMARK   73  A    between atoms: _173  and  _174
REMARK   74  A    between atoms: _176  and  _178
REMARK   75  A    between atoms: _178  and  _179
REMARK   76  A    between atoms: _178  and  _181
REMARK   77  A    between atoms: _181  and  _182
REMARK   78  A    between atoms: _187  and  _188
REMARK   79  A    between atoms: _190  and  _192
REMARK   80  A    between atoms: _192  and  _193
REMARK   81  A    between atoms: _195  and  _197
REMARK   82  A    between atoms: _197  and  _198
REMARK   83  A    between atoms: _197  and  _200
REMARK   84  A    between atoms: _200  and  _201
REMARK   85  A    between atoms: _204  and  _206
REMARK   86  A    between atoms: _206  and  _207
REMARK   87  A    between atoms: _209  and  _211
REMARK   88  A    between atoms: _211  and  _212
REMARK   89  A    between atoms: _211  and  _214
REMARK   90  A    between atoms: _214  and  _215
REMARK   91  A    between atoms: _217  and  _219
REMARK   92  A    between atoms: _219  and  _220
REMARK   93  A    between atoms: _219  and  _222
REMARK   94  A    between atoms: _222  and  _223
REMARK   95  A    between atoms: _225  and  _227
REMARK   96  A    between atoms: _227  and  _228
REMARK   97  A    between atoms: _227  and  _230
REMARK   98  A    between atoms: _230  and  _231
REMARK   99  A    between atoms: _233  and  _235
REMARK  100  A    between atoms: _235  and  _236
REMARK  101  A    between atoms: _235  and  _238
REMARK  102  A    between atoms: _238  and  _239
REMARK  103  A    between atoms: _241  and  _243
REMARK  104  A    between atoms: _243  and  _244
REMARK  105  A    between atoms: _243  and  _246
REMARK  106  A    between atoms: _246  and  _247
REMARK  107  A    between atoms: _249  and  _251
REMARK  108  A    between atoms: _251  and  _252
REMARK  109  A    between atoms: _251  and  _254
REMARK  110  A    between atoms: _254  and  _255
REMARK  111  A    between atoms: _261  and  _263
REMARK  112  A    between atoms: _263  and  _264
REMARK  113  A    between atoms: _263  and  _266
REMARK  114  A    between atoms: _266  and  _267
REMARK  115  A    between atoms: _270  and  _272
REMARK  116  A    between atoms: _272  and  _273
REMARK  117  A    between atoms: _272  and  _275
REMARK  118  A    between atoms: _275  and  _276
REMARK  119  A    between atoms: _276  and  _277
REMARK  120  A    between atoms: _280  and  _282
REMARK  121  A    between atoms: _282  and  _283
REMARK  122  A    between atoms: _282  and  _285
REMARK  123  A    between atoms: _285  and  _286
REMARK  124  A    between atoms: _289  and  _291
REMARK  125  A    between atoms: _291  and  _292
REMARK  126  A    between atoms: _291  and  _294
REMARK  127  A    between atoms: _294  and  _295
REMARK  128  A    between atoms: _297  and  _299
REMARK  129  A    between atoms: _299  and  _300
REMARK  130  A    between atoms: _299  and  _302
REMARK  131  A    between atoms: _302  and  _303
REMARK  132  A    between atoms: _306  and  _308
REMARK  133  A    between atoms: _308  and  _309
REMARK  134  A    between atoms: _308  and  _311
REMARK  135  A    between atoms: _311  and  _312
REMARK  136  A    between atoms: _315  and  _317
REMARK  137  A    between atoms: _317  and  _318
REMARK  138  A    between atoms: _320  and  _322
REMARK  139  A    between atoms: _322  and  _323
REMARK  140  A    between atoms: _322  and  _325
REMARK  141  A    between atoms: _325  and  _326
REMARK  142  A    between atoms: _329  and  _331
REMARK  143  A    between atoms: _331  and  _332
REMARK  144  A    between atoms: _331  and  _334
REMARK  145  A    between atoms: _334  and  _335
REMARK  146  A    between atoms: _338  and  _340
REMARK  147  A    between atoms: _340  and  _341
REMARK  148  A    between atoms: _340  and  _343
REMARK  149  A    between atoms: _343  and  _344
REMARK  150  A    between atoms: _347  and  _349
REMARK  151  A    between atoms: _349  and  _350
REMARK  152  A    between atoms: _353  and  _355
REMARK  153  A    between atoms: _355  and  _356
REMARK  154  A    between atoms: _355  and  _358
REMARK  155  A    between atoms: _358  and  _359
REMARK  156  A    between atoms: _362  and  _364
REMARK  157  A    between atoms: _364  and  _365
REMARK  158  A    between atoms: _364  and  _367
REMARK  159  A    between atoms: _367  and  _368
REMARK  160  A    between atoms: _371  and  _373
REMARK  161  A    between atoms: _373  and  _374
REMARK  162  A    between atoms: _373  and  _376
REMARK  163  A    between atoms: _376  and  _377
REMARK  164  A    between atoms: _382  and  _384
REMARK  165  A    between atoms: _384  and  _385
REMARK  166  A    between atoms: _384  and  _387
REMARK  167  A    between atoms: _387  and  _388
REMARK  168  A    between atoms: _391  and  _393
REMARK  169  A    between atoms: _393  and  _394
REMARK  170  A    between atoms: _393  and  _396
REMARK  171  A    between atoms: _396  and  _397
REMARK  172  A    between atoms: _397  and  _398
REMARK  173  A    between atoms: _403  and  _405
REMARK  174  A    between atoms: _405  and  _406
REMARK  175  A    between atoms: _408  and  _410
REMARK  176  A    between atoms: _410  and  _411
REMARK  177  A    between atoms: _410  and  _413
REMARK  178  A    between atoms: _413  and  _414
REMARK  179  A    between atoms: _420  and  _422
REMARK  180  A    between atoms: _422  and  _423
REMARK  181  A    between atoms: _425  and  _427
REMARK  182  A    between atoms: _427  and  _428
REMARK  183  A    between atoms: _427  and  _430
REMARK  184  A    between atoms: _430  and  _431
REMARK  185  A    between atoms: _434  and  _436
REMARK  186  A    between atoms: _436  and  _437
REMARK  187  A    between atoms: _440  and  _442
REMARK  188  A    between atoms: _442  and  _443
REMARK  189  A    between atoms: _442  and  _445
REMARK  190  A    between atoms: _445  and  _446
REMARK  191  A    between atoms: _449  and  _451
REMARK  192  A    between atoms: _451  and  _452
REMARK  193  A    between atoms: _451  and  _454
REMARK  194  A    between atoms: _454  and  _455
REMARK  195  A    between atoms: _458  and  _460
REMARK  196  A    between atoms: _460  and  _461
REMARK  197  A    between atoms: _463  and  _465
REMARK  198  A    between atoms: _465  and  _466
REMARK  199  A    between atoms: _465  and  _468
REMARK  200  A    between atoms: _468  and  _469
REMARK  201  A    between atoms: _472  and  _474
REMARK  202  A    between atoms: _474  and  _475
REMARK  203  A    between atoms: _474  and  _477
REMARK  204  A    between atoms: _477  and  _478
REMARK  205  A    between atoms: _481  and  _483
REMARK  206  A    between atoms: _483  and  _484
REMARK  207  A    between atoms: _483  and  _486
REMARK  208  A    between atoms: _486  and  _487
REMARK  209  A    between atoms: _490  and  _492
REMARK  210  A    between atoms: _492  and  _493
REMARK  211  A    between atoms: _492  and  _495
REMARK  212  A    between atoms: _495  and  _496
REMARK  213  A    between atoms: _499  and  _501
REMARK  214  A    between atoms: _501  and  _502
REMARK  215  A    between atoms: _501  and  _504
REMARK  216  A    between atoms: _504  and  _505
REMARK  217  A    between atoms: _510  and  _511
REMARK  218  A    between atoms: _513  and  _515
REMARK  219  A    between atoms: _515  and  _516
REMARK  220  A    between atoms: _515  and  _518
REMARK  221  A    between atoms: _521  and  _523
REMARK  222  A    between atoms: _523  and  _524
REMARK  223  A    between atoms: _526  and  _528
REMARK  224  A    between atoms: _528  and  _529
REMARK  225  A    between atoms: _528  and  _531
REMARK  226  A    between atoms: _531  and  _532
REMARK  227  A    between atoms: _538  and  _540
REMARK  228  A    between atoms: _540  and  _541
REMARK  229  A    between atoms: _543  and  _545
REMARK  230  A    between atoms: _545  and  _546
REMARK  231  A    between atoms: _545  and  _548
REMARK  232  A    between atoms: _548  and  _549
REMARK  233  A    between atoms: _555  and  _557
REMARK  234  A    between atoms: _557  and  _558
REMARK  235  A    between atoms: _560  and  _562
REMARK  236  A    between atoms: _562  and  _563
REMARK  237  A    between atoms: _565  and  _567
REMARK  238  A    between atoms: _567  and  _568
REMARK  239  A    between atoms: _567  and  _570
REMARK  240  A    between atoms: _570  and  _571
REMARK  241  A    between atoms: _571  and  _572
REMARK  242  A    between atoms: _577  and  _579
REMARK  243  A    between atoms: _579  and  _580
REMARK  244  A    between atoms: _579  and  _582
REMARK  245  A    between atoms: _582  and  _583
REMARK  246  A    between atoms: _585  and  _587
REMARK  247  A    between atoms: _587  and  _588
REMARK  248  A    between atoms: _587  and  _590
REMARK  249  A    between atoms: _590  and  _591
REMARK  250  A    between atoms: _593  and  _595
REMARK  251  A    between atoms: _595  and  _596
REMARK  252  A    between atoms: _598  and  _600
REMARK  253  A    between atoms: _600  and  _601
REMARK  254  A    between atoms: _600  and  _603
REMARK  255  A    between atoms: _603  and  _604
REMARK  256  A    between atoms: _607  and  _609
REMARK  257  A    between atoms: _609  and  _610
REMARK  258  A    between atoms: _612  and  _614
REMARK  259  A    between atoms: _614  and  _615
REMARK  260  A    between atoms: _614  and  _617
REMARK  261  A    between atoms: _617  and  _618
REMARK  262  A    between atoms: _621  and  _623
REMARK  263  A    between atoms: _623  and  _624
REMARK  264  A    between atoms: _623  and  _626
REMARK  265  A    between atoms: _626  and  _627
REMARK  266  A    between atoms: _632  and  _634
REMARK  267  A    between atoms: _634  and  _635
REMARK  268  A    between atoms: _634  and  _637
REMARK  269  A    between atoms: _637  and  _638
REMARK  270  A    between atoms: _641  and  _643
REMARK  271  A    between atoms: _643  and  _644
REMARK  272  A    between atoms: _643  and  _646
REMARK  273  A    between atoms: _646  and  _647
REMARK  274  A    between atoms: _653  and  _655
REMARK  275  A    between atoms: _655  and  _656
REMARK  276  A    between atoms: _658  and  _660
REMARK  277  A    between atoms: _660  and  _661
REMARK  278  A    between atoms: _660  and  _663
REMARK  279  A    between atoms: _663  and  _664
REMARK                            x       y       z     vdW  Elec       q    Type
REMARK                         _______ _______ _______ _____ _____    ______ ____
ROOT
ATOM      1  C   PHE A   1      -2.459  16.225  19.352  0.00  0.00    +0.239 C 
ATOM      2  O   PHE A   1      -1.406  15.820  18.860  0.00  0.00    -0.274 OA
ATOM      3  N   GLY A   2      -3.423  16.610  18.522  0.00  0.00    -0.296 N 
ATOM      4  H   GLY A   2      -4.263  17.103  18.886  0.00  0.00    +0.150 HD
ENDROOT
BRANCH   1   5
ATOM      5  CA  PHE A   1      -2.744  16.346  20.855  0.00  0.00    +0.149 C 
BRANCH   5   6
ATOM      6  N   PHE A   1      -2.238  15.151  21.498  0.00  0.00    -0.238 NA
ATOM      7  H   PHE A   1      -1.226  15.134  21.736  0.00  0.00    +0.142 HD
ENDBRANCH   5   6
BRANCH   5   8
ATOM      8  CB  PHE A   1      -2.022  17.619  21.435  0.00  0.00    +0.053 C 
BRANCH   8   9
ATOM      9  CG  PHE A   1      -2.626  18.906  20.987  0.00  0.00    -0.020 A 
ATOM     10  CD2 PHE A   1      -3.907  19.198  21.527  0.00  0.00    -0.004 A 
ATOM     11  CE2 PHE A   1      -4.532  20.418  21.194  0.00  0.00    -0.000 A 
ATOM     12  CZ  PHE A   1      -3.791  21.198  20.326  0.00  0.00    -0.000 A 
ATOM     13  CE1 PHE A   1      -2.570  20.911  19.763  0.00  0.00    -0.000 A 
ATOM     14  CD1 PHE A   1      -1.933  19.648  20.048  0.00  0.00    -0.004 A 
ENDBRANCH   8   9
ENDBRANCH   5   8
ENDBRANCH   1   5
BRANCH   3  15
ATOM     15  CA  GLY A   2      -3.285  16.323  17.035  0.00  0.00    +0.176 C 
BRANCH  15  16
ATOM     16  C   GLY A   2      -2.552  17.518  16.366  0.00  0.00    +0.243 C 
ATOM     17  O   GLY A   2      -2.471  18.666  16.872  0.00  0.00    -0.273 OA
ATOM     18  N   GLY A   3      -1.865  17.169  15.279  0.00  0.00    -0.301 N 
ATOM     19  H   GLY A   3      -1.910  16.194  14.920  0.00  0.00    +0.150 HD
BRANCH  18  20
ATOM     20  CA  GLY A   3      -1.052  18.163  14.600  0.00  0.00    +0.125 C 
BRANCH  20  21
ATOM     21  C   GLY A   3      -1.881  18.878  13.535  0.00  0.00    +0.203 C 
ATOM     22  O   GLY A   3      -1.253  19.764  12.964  0.00  0.00    -0.219 OA
ENDBRANCH  20  21
ENDBRANCH  18  20
ENDBRANCH  15  16
ENDBRANCH   3  15
TORSDOF 8
REMARK  Name = ../refined-set-2016/4er1/4er1_pocket.pdb
REMARK  279 active torsions:
REMARK  status: ('A' for Active; 'I' for Inactive)
REMARK    1  A    between atoms: _1  and  _3
REMARK    2  A    between atoms: _3  and  _4
REMARK    3  A    between atoms: _3  and  _6
REMARK    4  A    between atoms: _6  and  _7
REMARK    5  A    between atoms: _10  and  _12
REMARK    6  A    between atoms: _12  and  _13
REMARK    7  A    between atoms: _12  and  _15
REMARK    8  A    between atoms: _15  and  _16
REMARK    9  A    between atoms: _19  and  _21
REMARK   10  A    between atoms: _21  and  _22
REMARK   11  A    between atoms: _21  and  _24
REMARK   12  A    between atoms: _24  and  _25
REMARK   13  A    between atoms: _28  and  _30
REMARK   14  A    between atoms: _30  and  _31
REMARK   15  A    between atoms: _30  and  _33
REMARK   16  A    between atoms: _33  and  _34
REMARK   17  A    between atoms: _37  and  _39
REMARK   18  A    between atoms: _39  and  _40
REMARK   19  A    between atoms: _39  and  _42
REMARK   20  A    between atoms: _42  and  _43
REMARK   21  A    between atoms: _46  and  _48
REMARK   22  A    between atoms: _48  and  _49
REMARK   23  A    between atoms: _52  and  _54
REMARK   24  A    between atoms: _54  and  _55
REMARK   25  A    between atoms: _54  and  _57
REMARK   26  A    between atoms: _57  and  _58
REMARK   27  A    between atoms: _63  and  _64
REMARK   28  A    between atoms: _66  and  _68
REMARK   29  A    between atoms: _68  and  _69
REMARK   30  A    between atoms: _68  and  _71
REMARK   31  A    between atoms: _71  and  _72
REMARK   32  A    between atoms: _75  and  _77
REMARK   33  A    between atoms: _77  and  _78
REMARK   34  A    between atoms: _77  and  _80
REMARK   35  A    between atoms: _80  and  _81
REMARK   36  A    between atoms: _87  and  _89
REMARK   37  A    between atoms: _89  and  _90
REMARK   38  A    between atoms: _89  and  _92
REMARK   39  A    between atoms: _92  and  _93
REMARK   40  A    between atoms: _96  and  _98
REMARK   41  A    between atoms: _98  and  _99
REMARK   42  A    between atoms: _98  and  _101
REMARK   43  A    between atoms: _101  and  _102
REMARK   44  A    between atoms: _105  and  _107
REMARK   45  A    between atoms: _107  and  _108
REMARK   46  A    between atoms: _110  and  _112
REMARK   47  A    between atoms: _112  and  _113
REMARK   48  A    between atoms: _112  and  _115
REMARK   49  A    between atoms: _115  and  _116
REMARK   50  A    between atoms: _118  and  _120
REMARK   51  A    between atoms: _120  and  _121
REMARK   52  A    between atoms: _120  and  _123
REMARK   53  A    between atoms: _123  and  _124
REMARK   54  A    between atoms: _126  and  _128
REMARK   55  A    between atoms: _128  and  _129
REMARK   56  A    between atoms: _128  and  _131
REMARK   57  A    between atoms: _131  and  _132
REMARK   58  A    between atoms: _135  and  _137
REMARK   59  A    between atoms: _137  and  _138
REMARK   60  A    between atoms: _137  and  _140
REMARK   61  A    between atoms: _140  and  _141
REMARK   62  A    between atoms: _151  and  _153
REMARK   63  A    between atoms: _153  and  _154
REMARK   64  A    between atoms: _153  and  _156
REMARK   65  A    between atoms: _156  and  _157
REMARK   66  A    between atoms: _159  and  _161
REMARK   67  A    between atoms: _161  and  _162
REMARK   68  A    between atoms: _161  and  _164
REMARK   69  A    between atoms: _164  and  _165
REMARK   70  A    between atoms: _168  and  _170
REMARK   71  A    between atoms: _170  and  _171
REMARK   72  A    between atoms: _170  and  _173
REMARK   73  A    between atoms: _173  and  _174
REMARK   74  A    between atoms: _176  and  _178
REMARK   75  A    between atoms: _178  and  _179
REMARK   76  A    between atoms: _178  and  _181
REMARK   77  A    between atoms: _181  and  _182
REMARK   78  A    between atoms: _187  and  _188
REMARK   79  A    between atoms: _190  and  _192
REMARK   80  A    between atoms: _192  and  _193
REMARK   81  A    between atoms: _195  and  _197
REMARK   82  A    between atoms: _197  and  _198
REMARK   83  A    between atoms: _197  and  _200
REMARK   84  A    between atoms: _200  and  _201
REMARK   85  A    between atoms: _204  and  _206
REMARK   86  A    between atoms: _206  and  _207
REMARK   87  A    between atoms: _209  and  _211
REMARK   88  A    between atoms: _211  and  _212
REMARK   89  A    between atoms: _211  and  _214
REMARK   90  A    between atoms: _214  and  _215
REMARK   91  A    between atoms: _217  and  _219
REMARK   92  A    between atoms: _219  and  _220
REMARK   93  A    between atoms: _219  and  _222
REMARK   94  A    between atoms: _222  and  _223
REMARK   95  A    between atoms: _225  and  _227
REMARK   96  A    between atoms: _227  and  _228
REMARK   97  A    between atoms: _227  and  _230
REMARK   98  A    between atoms: _230  and  _231
REMARK   99  A    between atoms: _233  and  _235
REMARK  100  A    between atoms: _235  and  _236
REMARK  101  A    between atoms: _235  and  _238
REMARK  102  A    between atoms: _238  and  _239
REMARK  103  A    between atoms: _241  and  _243
REMARK  104  A    between atoms: _243  and  _244
REMARK  105  A    between atoms: _243  and  _246
REMARK  106  A    between atoms: _246  and  _247
REMARK  107  A    between atoms: _249  and  _251
REMARK  108  A    between atoms: _251  and  _252
REMARK  109  A    between atoms: _251  and  _254
REMARK  110  A    between atoms: _254  and  _255
REMARK  111  A    between atoms: _261  and  _263
REMARK  112  A    between atoms: _263  and  _264
REMARK  113  A    between atoms: _263  and  _266
REMARK  114  A    between atoms: _266  and  _267
REMARK  115  A    between atoms: _270  and  _272
REMARK  116  A    between atoms: _272  and  _273
REMARK  117  A    between atoms: _272  and  _275
REMARK  118  A    between atoms: _275  and  _276
REMARK  119  A    between atoms: _276  and  _277
REMARK  120  A    between atoms: _280  and  _282
REMARK  121  A    between atoms: _282  and  _283
REMARK  122  A    between atoms: _282  and  _285
REMARK  123  A    between atoms: _285  and  _286
REMARK  124  A    between atoms: _289  and  _291
REMARK  125  A    between atoms: _291  and  _292
REMARK  126  A    between atoms: _291  and  _294
REMARK  127  A    between atoms: _294  and  _295
REMARK  128  A    between atoms: _297  and  _299
REMARK  129  A    between atoms: _299  and  _300
REMARK  130  A    between atoms: _299  and  _302
REMARK  131  A    between atoms: _302  and  _303
REMARK  132  A    between atoms: _306  and  _308
REMARK  133  A    between atoms: _308  and  _309
REMARK  134  A    between atoms: _308  and  _311
REMARK  135  A    between atoms: _311  and  _312
REMARK  136  A    between atoms: _315  and  _317
REMARK  137  A    between atoms: _317  and  _318
REMARK  138  A    between atoms: _320  and  _322
REMARK  139  A    between atoms: _322  and  _323
REMARK  140  A    between atoms: _322  and  _325
REMARK  141  A    between atoms: _325  and  _326
REMARK  142  A    between atoms: _329  and  _331
REMARK  143  A    between atoms: _331  and  _332
REMARK  144  A    between atoms: _331  and  _334
REMARK  145  A    between atoms: _334  and  _335
REMARK  146  A    between atoms: _338  and  _340
REMARK  147  A    between atoms: _340  and  _341
REMARK  148  A    between atoms: _340  and  _343
REMARK  149  A    between atoms: _343  and  _344
REMARK  150  A    between atoms: _347  and  _349
REMARK  151  A    between atoms: _349  and  _350
REMARK  152  A    between atoms: _353  and  _355
REMARK  153  A    between atoms: _355  and  _356
REMARK  154  A    between atoms: _355  and  _358
REMARK  155  A    between atoms: _358  and  _359
REMARK  156  A    between atoms: _362  and  _364
REMARK  157  A    between atoms: _364  and  _365
REMARK  158  A    between atoms: _364  and  _367
REMARK  159  A    between atoms: _367  and  _368
REMARK  160  A    between atoms: _371  and  _373
REMARK  161  A    between atoms: _373  and  _374
REMARK  162  A    between atoms: _373  and  _376
REMARK  163  A    between atoms: _376  and  _377
REMARK  164  A    between atoms: _382  and  _384
REMARK  165  A    between atoms: _384  and  _385
REMARK  166  A    between atoms: _384  and  _387
REMARK  167  A    between atoms: _387  and  _388
REMARK  168  A    between atoms: _391  and  _393
REMARK  169  A    between atoms: _393  and  _394
REMARK  170  A    between atoms: _393  and  _396
REMARK  171  A    between atoms: _396  and  _397
REMARK  172  A    between atoms: _397  and  _398
REMARK  173  A    between atoms: _403  and  _405
REMARK  174  A    between atoms: _405  and  _406
REMARK  175  A    between atoms: _408  and  _410
REMARK  176  A    between atoms: _410  and  _411
REMARK  177  A    between atoms: _410  and  _413
REMARK  178  A    between atoms: _413  and  _414
REMARK  179  A    between atoms: _420  and  _422
REMARK  180  A    between atoms: _422  and  _423
REMARK  181  A    between atoms: _425  and  _427
REMARK  182  A    between atoms: _427  and  _428
REMARK  183  A    between atoms: _427  and  _430
REMARK  184  A    between atoms: _430  and  _431
REMARK  185  A    between atoms: _434  and  _436
REMARK  186  A    between atoms: _436  and  _437
REMARK  187  A    between atoms: _440  and  _442
REMARK  188  A    between atoms: _442  and  _443
REMARK  189  A    between atoms: _442  and  _445
REMARK  190  A    between atoms: _445  and  _446
REMARK  191  A    between atoms: _449  and  _451
REMARK  192  A    between atoms: _451  and  _452
REMARK  193  A    between atoms: _451  and  _454
REMARK  194  A    between atoms: _454  and  _455
REMARK  195  A    between atoms: _458  and  _460
REMARK  196  A    between atoms: _460  and  _461
REMARK  197  A    between atoms: _463  and  _465
REMARK  198  A    between atoms: _465  and  _466
REMARK  199  A    between atoms: _465  and  _468
REMARK  200  A    between atoms: _468  and  _469
REMARK  201  A    between atoms: _472  and  _474
REMARK  202  A    between atoms: _474  and  _475
REMARK  203  A    between atoms: _474  and  _477
REMARK  204  A    between atoms: _477  and  _478
REMARK  205  A    between atoms: _481  and  _483
REMARK  206  A    between atoms: _483  and  _484
REMARK  207  A    between atoms: _483  and  _486
REMARK  208  A    between atoms: _486  and  _487
REMARK  209  A    between atoms: _490  and  _492
REMARK  210  A    between atoms: _492  and  _493
REMARK  211  A    between atoms: _492  and  _495
REMARK  212  A    between atoms: _495  and  _496
REMARK  213  A    between atoms: _499  and  _501
REMARK  214  A    between atoms: _501  and  _502
REMARK  215  A    between atoms: _501  and  _504
REMARK  216  A    between atoms: _504  and  _505
REMARK  217  A    between atoms: _510  and  _511
REMARK  218  A    between atoms: _513  and  _515
REMARK  219  A    between atoms: _515  and  _516
REMARK  220  A    between atoms: _515  and  _518
REMARK  221  A    between atoms: _521  and  _523
REMARK  222  A    between atoms: _523  and  _524
REMARK  223  A    between atoms: _526  and  _528
REMARK  224  A    between atoms: _528  and  _529
REMARK  225  A    between atoms: _528  and  _531
REMARK  226  A    between atoms: _531  and  _532
REMARK  227  A    between atoms: _538  and  _540
REMARK  228  A    between atoms: _540  and  _541
REMARK  229  A    between atoms: _543  and  _545
REMARK  230  A    between atoms: _545  and  _546
REMARK  231  A    between atoms: _545  and  _548
REMARK  232  A    between atoms: _548  and  _549
REMARK  233  A    between atoms: _555  and  _557
REMARK  234  A    between atoms: _557  and  _558
REMARK  235  A    between atoms: _560  and  _562
REMARK  236  A    between atoms: _562  and  _563
REMARK  237  A    between atoms: _565  and  _567
REMARK  238  A    between atoms: _567  and  _568
REMARK  239  A    between atoms: _567  and  _570
REMARK  240  A    between atoms: _570  and  _571
REMARK  241  A    between atoms: _571  and  _572
REMARK  242  A    between atoms: _577  and  _579
REMARK  243  A    between atoms: _579  and  _580
REMARK  244  A    between atoms: _579  and  _582
REMARK  245  A    between atoms: _582  and  _583
REMARK  246  A    between atoms: _585  and  _587
REMARK  247  A    between atoms: _587  and  _588
REMARK  248  A    between atoms: _587  and  _590
REMARK  249  A    between atoms: _590  and  _591
REMARK  250  A    between atoms: _593  and  _595
REMARK  251  A    between atoms: _595  and  _596
REMARK  252  A    between atoms: _598  and  _600
REMARK  253  A    between atoms: _600  and  _601
REMARK  254  A    between atoms: _600  and  _603
REMARK  255  A    between atoms: _603  and  _604
REMARK  256  A    between atoms: _607  and  _609
REMARK  257  A    between atoms: _609  and  _610
REMARK  258  A    between atoms: _612  and  _614
REMARK  259  A    between atoms: _614  and  _615
REMARK  260  A    between atoms: _614  and  _617
REMARK  261  A    between atoms: _617  and  _618
REMARK  262  A    between atoms: _621  and  _623
REMARK  263  A    between atoms: _623  and  _624
REMARK  264  A    between atoms: _623  and  _626
REMARK  265  A    between atoms: _626  and  _627
REMARK  266  A    between atoms: _632  and  _634
REMARK  267  A    between atoms: _634  and  _635
REMARK  268  A    between atoms: _634  and  _637
REMARK  269  A    between atoms: _637  and  _638
REMARK  270  A    between atoms: _641  and  _643
REMARK  271  A    between atoms: _643  and  _644
REMARK  272  A    between atoms: _643  and  _646
REMARK  273  A    between atoms: _646  and  _647
REMARK  274  A    between atoms: _653  and  _655
REMARK  275  A    between atoms: _655  and  _656
REMARK  276  A    between atoms: _658  and  _660
REMARK  277  A    between atoms: _660  and  _661
REMARK  278  A    between atoms: _660  and  _663
REMARK  279  A    between atoms: _663  and  _664
REMARK                            x       y       z     vdW  Elec       q    Type
REMARK                         _______ _______ _______ _____ _____    ______ ____
ROOT
ATOM      1  C   GLN A   1      -6.990  22.885  13.044  0.00  0.00    +0.238 C 
ATOM      2  N   SER A   2      -8.048  23.425  13.580  0.00  0.00    -0.295 N 
ATOM      3  H   SER A   2      -8.312  23.227  14.566  0.00  0.00    +0.150 HD
ATOM      4  O   GLN A   1      -6.493  23.348  12.022  0.00  0.00    -0.274 OA
ENDROOT
BRANCH   1   5
ATOM      5  CA  GLN A   1      -6.249  21.871  13.916  0.00  0.00    +0.145 C 
BRANCH   5   6
ATOM      6  N   GLN A   1      -5.213  21.207  13.131  0.00  0.00    -0.238 NA
ATOM      7  H   GLN A   1      -4.540  21.767  12.570  0.00  0.00    +0.142 HD
ENDBRANCH   5   6
BRANCH   5   8
ATOM      8  CB  GLN A   1      -5.650  22.639  15.133  0.00  0.00    +0.036 C 
BRANCH   8   9
ATOM      9  CG  GLN A   1      -4.916  21.686  16.108  0.00  0.00    +0.087 C 
BRANCH   9  10
ATOM     10  CD  GLN A   1      -5.693  20.703  16.904  0.00  0.00    +0.219 C 
ATOM     11  NE2 GLN A   1      -5.187  19.551  17.419  0.00  0.00    -0.329 N 
ATOM     12 HE21 GLN A   1      -5.825  18.842  17.834  0.00  0.00    +0.145 HD
ATOM     13 HE22 GLN A   1      -4.162  19.378  17.398  0.00  0.00    +0.145 HD
ATOM     14  OE1 GLN A   1      -7.020  20.851  16.968  0.00  0.00    -0.275 OA
ENDBRANCH   9  10
ENDBRANCH   8   9
ENDBRANCH   5   8
ENDBRANCH   1   5
BRANCH   2  15
ATOM     15  CA  SER A   2      -8.891  24.362  12.707  0.00  0.00    +0.178 C 
BRANCH  15  16
ATOM     16  C   SER A   2      -8.327  25.780  12.711  0.00  0.00    +0.243 C 
ATOM     17  O   SER A   2      -7.772  26.309  13.700  0.00  0.00    -0.273 OA
ATOM     18  N   SER A   3      -8.316  26.394  11.471  0.00  0.00    -0.296 N 
ATOM     19  H   SER A   3      -8.674  25.974  10.589  0.00  0.00    +0.150 HD
BRANCH  18  20
ATOM     20  CA  SER A   3      -7.693  27.791  11.599  0.00  0.00    +0.166 C 
BRANCH  20  21
ATOM     21  CB  SER A   3      -8.826  28.806  11.823  0.00  0.00    +0.229 C 
ATOM     22  OG  SER A   3      -8.571  30.009  11.628  0.00  0.00    -0.286 OA
ENDBRANCH  20  21
BRANCH  20  23
ATOM     23  C   SER A   3      -7.177  28.142  10.201  0.00  0.00    +0.165 C 
BRANCH  23  24
ATOM     24  O   SER A   3      -8.304  27.916   9.317  0.00  0.00    -0.380 OA
ATOM     25  H   SER A   3      -8.584  26.968   9.376  0.00  0.00    +0.211 HD
ENDBRANCH  23  24
ENDBRANCH  20  23
ENDBRANCH  18  20
ENDBRANCH  15  16
BRANCH  15  26
ATOM     26  CB  SER A   2     -10.240  24.522  13.495  0.00  0.00    +0.166 C 
BRANCH  26  27
ATOM     27  OG  SER A   2     -11.037  25.384  12.695  0.00  0.00    -0.380 OA
ATOM     28  H   SER A   2     -11.911  25.529  13.137  0.00  0.00    +0.211 HD
ENDBRANCH  26  27
ENDBRANCH  15  26
ENDBRANCH   2  15
TORSDOF 13
REMARK  Name = ../refined-set-2016/4er1/4er1_pocket.pdb
REMARK  279 active torsions:
REMARK  status: ('A' for Active; 'I' for Inactive)
REMARK    1  A    between atoms: _1  and  _3
REMARK    2  A    between atoms: _3  and  _4
REMARK    3  A    between atoms: _3  and  _6
REMARK    4  A    between atoms: _6  and  _7
REMARK    5  A    between atoms: _10  and  _12
REMARK    6  A    between atoms: _12  and  _13
REMARK    7  A    between atoms: _12  and  _15
REMARK    8  A    between atoms: _15  and  _16
REMARK    9  A    between atoms: _19  and  _21
REMARK   10  A    between atoms: _21  and  _22
REMARK   11  A    between atoms: _21  and  _24
REMARK   12  A    between atoms: _24  and  _25
REMARK   13  A    between atoms: _28  and  _30
REMARK   14  A    between atoms: _30  and  _31
REMARK   15  A    between atoms: _30  and  _33
REMARK   16  A    between atoms: _33  and  _34
REMARK   17  A    between atoms: _37  and  _39
REMARK   18  A    between atoms: _39  and  _40
REMARK   19  A    between atoms: _39  and  _42
REMARK   20  A    between atoms: _42  and  _43
REMARK   21  A    between atoms: _46  and  _48
REMARK   22  A    between atoms: _48  and  _49
REMARK   23  A    between atoms: _52  and  _54
REMARK   24  A    between atoms: _54  and  _55
REMARK   25  A    between atoms: _54  and  _57
REMARK   26  A    between atoms: _57  and  _58
REMARK   27  A    between atoms: _63  and  _64
REMARK   28  A    between atoms: _66  and  _68
REMARK   29  A    between atoms: _68  and  _69
REMARK   30  A    between atoms: _68  and  _71
REMARK   31  A    between atoms: _71  and  _72
REMARK   32  A    between atoms: _75  and  _77
REMARK   33  A    between atoms: _77  and  _78
REMARK   34  A    between atoms: _77  and  _80
REMARK   35  A    between atoms: _80  and  _81
REMARK   36  A    between atoms: _87  and  _89
REMARK   37  A    between atoms: _89  and  _90
REMARK   38  A    between atoms: _89  and  _92
REMARK   39  A    between atoms: _92  and  _93
REMARK   40  A    between atoms: _96  and  _98
REMARK   41  A    between atoms: _98  and  _99
REMARK   42  A    between atoms: _98  and  _101
REMARK   43  A    between atoms: _101  and  _102
REMARK   44  A    between atoms: _105  and  _107
REMARK   45  A    between atoms: _107  and  _108
REMARK   46  A    between atoms: _110  and  _112
REMARK   47  A    between atoms: _112  and  _113
REMARK   48  A    between atoms: _112  and  _115
REMARK   49  A    between atoms: _115  and  _116
REMARK   50  A    between atoms: _118  and  _120
REMARK   51  A    between atoms: _120  and  _121
REMARK   52  A    between atoms: _120  and  _123
REMARK   53  A    between atoms: _123  and  _124
REMARK   54  A    between atoms: _126  and  _128
REMARK   55  A    between atoms: _128  and  _129
REMARK   56  A    between atoms: _128  and  _131
REMARK   57  A    between atoms: _131  and  _132
REMARK   58  A    between atoms: _135  and  _137
REMARK   59  A    between atoms: _137  and  _138
REMARK   60  A    between atoms: _137  and  _140
REMARK   61  A    between atoms: _140  and  _141
REMARK   62  A    between atoms: _151  and  _153
REMARK   63  A    between atoms: _153  and  _154
REMARK   64  A    between atoms: _153  and  _156
REMARK   65  A    between atoms: _156  and  _157
REMARK   66  A    between atoms: _159  and  _161
REMARK   67  A    between atoms: _161  and  _162
REMARK   68  A    between atoms: _161  and  _164
REMARK   69  A    between atoms: _164  and  _165
REMARK   70  A    between atoms: _168  and  _170
REMARK   71  A    between atoms: _170  and  _171
REMARK   72  A    between atoms: _170  and  _173
REMARK   73  A    between atoms: _173  and  _174
REMARK   74  A    between atoms: _176  and  _178
REMARK   75  A    between atoms: _178  and  _179
REMARK   76  A    between atoms: _178  and  _181
REMARK   77  A    between atoms: _181  and  _182
REMARK   78  A    between atoms: _187  and  _188
REMARK   79  A    between atoms: _190  and  _192
REMARK   80  A    between atoms: _192  and  _193
REMARK   81  A    between atoms: _195  and  _197
REMARK   82  A    between atoms: _197  and  _198
REMARK   83  A    between atoms: _197  and  _200
REMARK   84  A    between atoms: _200  and  _201
REMARK   85  A    between atoms: _204  and  _206
REMARK   86  A    between atoms: _206  and  _207
REMARK   87  A    between atoms: _209  and  _211
REMARK   88  A    between atoms: _211  and  _212
REMARK   89  A    between atoms: _211  and  _214
REMARK   90  A    between atoms: _214  and  _215
REMARK   91  A    between atoms: _217  and  _219
REMARK   92  A    between atoms: _219  and  _220
REMARK   93  A    between atoms: _219  and  _222
REMARK   94  A    between atoms: _222  and  _223
REMARK   95  A    between atoms: _225  and  _227
REMARK   96  A    between atoms: _227  and  _228
REMARK   97  A    between atoms: _227  and  _230
REMARK   98  A    between atoms: _230  and  _231
REMARK   99  A    between atoms: _233  and  _235
REMARK  100  A    between atoms: _235  and  _236
REMARK  101  A    between atoms: _235  and  _238
REMARK  102  A    between atoms: _238  and  _239
REMARK  103  A    between atoms: _241  and  _243
REMARK  104  A    between atoms: _243  and  _244
REMARK  105  A    between atoms: _243  and  _246
REMARK  106  A    between atoms: _246  and  _247
REMARK  107  A    between atoms: _249  and  _251
REMARK  108  A    between atoms: _251  and  _252
REMARK  109  A    between atoms: _251  and  _254
REMARK  110  A    between atoms: _254  and  _255
REMARK  111  A    between atoms: _261  and  _263
REMARK  112  A    between atoms: _263  and  _264
REMARK  113  A    between atoms: _263  and  _266
REMARK  114  A    between atoms: _266  and  _267
REMARK  115  A    between atoms: _270  and  _272
REMARK  116  A    between atoms: _272  and  _273
REMARK  117  A    between atoms: _272  and  _275
REMARK  118  A    between atoms: _275  and  _276
REMARK  119  A    between atoms: _276  and  _277
REMARK  120  A    between atoms: _280  and  _282
REMARK  121  A    between atoms: _282  and  _283
REMARK  122  A    between atoms: _282  and  _285
REMARK  123  A    between atoms: _285  and  _286
REMARK  124  A    between atoms: _289  and  _291
REMARK  125  A    between atoms: _291  and  _292
REMARK  126  A    between atoms: _291  and  _294
REMARK  127  A    between atoms: _294  and  _295
REMARK  128  A    between atoms: _297  and  _299
REMARK  129  A    between atoms: _299  and  _300
REMARK  130  A    between atoms: _299  and  _302
REMARK  131  A    between atoms: _302  and  _303
REMARK  132  A    between atoms: _306  and  _308
REMARK  133  A    between atoms: _308  and  _309
REMARK  134  A    between atoms: _308  and  _311
REMARK  135  A    between atoms: _311  and  _312
REMARK  136  A    between atoms: _315  and  _317
REMARK  137  A    between atoms: _317  and  _318
REMARK  138  A    between atoms: _320  and  _322
REMARK  139  A    between atoms: _322  and  _323
REMARK  140  A    between atoms: _322  and  _325
REMARK  141  A    between atoms: _325  and  _326
REMARK  142  A    between atoms: _329  and  _331
REMARK  143  A    between atoms: _331  and  _332
REMARK  144  A    between atoms: _331  and  _334
REMARK  145  A    between atoms: _334  and  _335
REMARK  146  A    between atoms: _338  and  _340
REMARK  147  A    between atoms: _340  and  _341
REMARK  148  A    between atoms: _340  and  _343
REMARK  149  A    between atoms: _343  and  _344
REMARK  150  A    between atoms: _347  and  _349
REMARK  151  A    between atoms: _349  and  _350
REMARK  152  A    between atoms: _353  and  _355
REMARK  153  A    between atoms: _355  and  _356
REMARK  154  A    between atoms: _355  and  _358
REMARK  155  A    between atoms: _358  and  _359
REMARK  156  A    between atoms: _362  and  _364
REMARK  157  A    between atoms: _364  and  _365
REMARK  158  A    between atoms: _364  and  _367
REMARK  159  A    between atoms: _367  and  _368
REMARK  160  A    between atoms: _371  and  _373
REMARK  161  A    between atoms: _373  and  _374
REMARK  162  A    between atoms: _373  and  _376
REMARK  163  A    between atoms: _376  and  _377
REMARK  164  A    between atoms: _382  and  _384
REMARK  165  A    between atoms: _384  and  _385
REMARK  166  A    between atoms: _384  and  _387
REMARK  167  A    between atoms: _387  and  _388
REMARK  168  A    between atoms: _391  and  _393
REMARK  169  A    between atoms: _393  and  _394
REMARK  170  A    between atoms: _393  and  _396
REMARK  171  A    between atoms: _396  and  _397
REMARK  172  A    between atoms: _397  and  _398
REMARK  173  A    between atoms: _403  and  _405
REMARK  174  A    between atoms: _405  and  _406
REMARK  175  A    between atoms: _408  and  _410
REMARK  176  A    between atoms: _410  and  _411
REMARK  177  A    between atoms: _410  and  _413
REMARK  178  A    between atoms: _413  and  _414
REMARK  179  A    between atoms: _420  and  _422
REMARK  180  A    between atoms: _422  and  _423
REMARK  181  A    between atoms: _425  and  _427
REMARK  182  A    between atoms: _427  and  _428
REMARK  183  A    between atoms: _427  and  _430
REMARK  184  A    between atoms: _430  and  _431
REMARK  185  A    between atoms: _434  and  _436
REMARK  186  A    between atoms: _436  and  _437
REMARK  187  A    between atoms: _440  and  _442
REMARK  188  A    between atoms: _442  and  _443
REMARK  189  A    between atoms: _442  and  _445
REMARK  190  A    between atoms: _445  and  _446
REMARK  191  A    between atoms: _449  and  _451
REMARK  192  A    between atoms: _451  and  _452
REMARK  193  A    between atoms: _451  and  _454
REMARK  194  A    between atoms: _454  and  _455
REMARK  195  A    between atoms: _458  and  _460
REMARK  196  A    between atoms: _460  and  _461
REMARK  197  A    between atoms: _463  and  _465
REMARK  198  A    between atoms: _465  and  _466
REMARK  199  A    between atoms: _465  and  _468
REMARK  200  A    between atoms: _468  and  _469
REMARK  201  A    between atoms: _472  and  _474
REMARK  202  A    between atoms: _474  and  _475
REMARK  203  A    between atoms: _474  and  _477
REMARK  204  A    between atoms: _477  and  _478
REMARK  205  A    between atoms: _481  and  _483
REMARK  206  A    between atoms: _483  and  _484
REMARK  207  A    between atoms: _483  and  _486
REMARK  208  A    between atoms: _486  and  _487
REMARK  209  A    between atoms: _490  and  _492
REMARK  210  A    between atoms: _492  and  _493
REMARK  211  A    between atoms: _492  and  _495
REMARK  212  A    between atoms: _495  and  _496
REMARK  213  A    between atoms: _499  and  _501
REMARK  214  A    between atoms: _501  and  _502
REMARK  215  A    between atoms: _501  and  _504
REMARK  216  A    between atoms: _504  and  _505
REMARK  217  A    between atoms: _510  and  _511
REMARK  218  A    between atoms: _513  and  _515
REMARK  219  A    between atoms: _515  and  _516
REMARK  220  A    between atoms: _515  and  _518
REMARK  221  A    between atoms: _521  and  _523
REMARK  222  A    between atoms: _523  and  _524
REMARK  223  A    between atoms: _526  and  _528
REMARK  224  A    between atoms: _528  and  _529
REMARK  225  A    between atoms: _528  and  _531
REMARK  226  A    between atoms: _531  and  _532
REMARK  227  A    between atoms: _538  and  _540
REMARK  228  A    between atoms: _540  and  _541
REMARK  229  A    between atoms: _543  and  _545
REMARK  230  A    between atoms: _545  and  _546
REMARK  231  A    between atoms: _545  and  _548
REMARK  232  A    between atoms: _548  and  _549
REMARK  233  A    between atoms: _555  and  _557
REMARK  234  A    between atoms: _557  and  _558
REMARK  235  A    between atoms: _560  and  _562
REMARK  236  A    between atoms: _562  and  _563
REMARK  237  A    between atoms: _565  and  _567
REMARK  238  A    between atoms: _567  and  _568
REMARK  239  A    between atoms: _567  and  _570
REMARK  240  A    between atoms: _570  and  _571
REMARK  241  A    between atoms: _571  and  _572
REMARK  242  A    between atoms: _577  and  _579
REMARK  243  A    between atoms: _579  and  _580
REMARK  244  A    between atoms: _579  and  _582
REMARK  245  A    between atoms: _582  and  _583
REMARK  246  A    between atoms: _585  and  _587
REMARK  247  A    between atoms: _587  and  _588
REMARK  248  A    between atoms: _587  and  _590
REMARK  249  A    between atoms: _590  and  _591
REMARK  250  A    between atoms: _593  and  _595
REMARK  251  A    between atoms: _595  and  _596
REMARK  252  A    between atoms: _598  and  _600
REMARK  253  A    between atoms: _600  and  _601
REMARK  254  A    between atoms: _600  and  _603
REMARK  255  A    between atoms: _603  and  _604
REMARK  256  A    between atoms: _607  and  _609
REMARK  257  A    between atoms: _609  and  _610
REMARK  258  A    between atoms: _612  and  _614
REMARK  259  A    between atoms: _614  and  _615
REMARK  260  A    between atoms: _614  and  _617
REMARK  261  A    between atoms: _617  and  _618
REMARK  262  A    between atoms: _621  and  _623
REMARK  263  A    between atoms: _623  and  _624
REMARK  264  A    between atoms: _623  and  _626
REMARK  265  A    between atoms: _626  and  _627
REMARK  266  A    between atoms: _632  and  _634
REMARK  267  A    between atoms: _634  and  _635
REMARK  268  A    between atoms: _634  and  _637
REMARK  269  A    between atoms: _637  and  _638
REMARK  270  A    between atoms: _641  and  _643
REMARK  271  A    between atoms: _643  and  _644
REMARK  272  A    between atoms: _643  and  _646
REMARK  273  A    between atoms: _646  and  _647
REMARK  274  A    between atoms: _653  and  _655
REMARK  275  A    between atoms: _655  and  _656
REMARK  276  A    between atoms: _658  and  _660
REMARK  277  A    between atoms: _660  and  _661
REMARK  278  A    between atoms: _660  and  _663
REMARK  279  A    between atoms: _663  and  _664
REMARK                            x       y       z     vdW  Elec       q    Type
REMARK                         _______ _______ _______ _____ _____    ______ ____
ROOT
ATOM      1  CA  ASN A   5      -4.790  28.860   7.081  0.00  0.00    +0.158 C 
ENDROOT
BRANCH   1   4
ATOM      2  C   ILE A   4      -5.324  30.936   8.163  0.00  0.00    +0.241 C 
ATOM      3  O   ILE A   4      -4.989  30.657   9.275  0.00  0.00    -0.273 OA
ATOM      4  N   ASN A   5      -5.258  30.257   6.981  0.00  0.00    -0.297 N 
ATOM      5  H   ASN A   5      -5.519  30.693   6.074  0.00  0.00    +0.150 HD
BRANCH   2   6
ATOM      6  CA  ILE A   4      -5.827  32.384   7.943  0.00  0.00    +0.149 C 
BRANCH   6   8
ATOM      7  C   GLY A   3      -7.543  33.615   9.181  0.00  0.00    +0.243 C 
ATOM      8  N   ILE A   4      -6.512  32.749   9.188  0.00  0.00    -0.297 N 
ATOM      9  H   ILE A   4      -6.197  32.333  10.088  0.00  0.00    +0.150 HD
ATOM     10  O   GLY A   3      -7.865  34.266   8.177  0.00  0.00    -0.273 OA
BRANCH   7  11
ATOM     11  CA  GLY A   3      -8.493  33.742  10.363  0.00  0.00    +0.176 C 
BRANCH  11  14
ATOM     12  C   ILE A   2      -7.069  33.473  12.366  0.00  0.00    +0.241 C 
ATOM     13  O   ILE A   2      -6.514  34.540  12.199  0.00  0.00    -0.273 OA
ATOM     14  N   GLY A   3      -8.001  33.056  11.568  0.00  0.00    -0.295 N 
ATOM     15  H   GLY A   3      -8.446  32.146  11.803  0.00  0.00    +0.150 HD
BRANCH  12  16
ATOM     16  CA  ILE A   2      -6.739  32.568  13.538  0.00  0.00    +0.148 C 
BRANCH  16  19
ATOM     17  C   GLY A   1      -8.628  31.961  14.925  0.00  0.00    +0.240 C 
ATOM     18  O   GLY A   1      -8.419  33.053  15.466  0.00  0.00    -0.274 OA
ATOM     19  N   ILE A   2      -7.914  31.707  13.836  0.00  0.00    -0.297 N 
ATOM     20  H   ILE A   2      -8.171  30.922  13.204  0.00  0.00    +0.150 HD
BRANCH  17  21
ATOM     21  CA  GLY A   1      -9.792  31.096  15.345  0.00  0.00    +0.169 C 
BRANCH  21  22
ATOM     22  N   GLY A   1     -10.318  30.172  14.315  0.00  0.00    -0.236 NA
ATOM     23  H   GLY A   1     -10.240  29.156  14.524  0.00  0.00    +0.142 HD
ENDBRANCH  21  22
ENDBRANCH  17  21
ENDBRANCH  16  19
BRANCH  16  24
ATOM     24  CB  ILE A   2      -5.671  31.585  13.018  0.00  0.00    +0.027 C 
ATOM     25  CG2 ILE A   2      -4.591  32.342  12.238  0.00  0.00    +0.002 C 
BRANCH  24  26
ATOM     26  CG1 ILE A   2      -5.012  30.849  14.185  0.00  0.00    +0.002 C 
ATOM     27  CD1 ILE A   2      -4.204  29.682  13.552  0.00  0.00    +0.000 C 
ENDBRANCH  24  26
ENDBRANCH  16  24
ENDBRANCH  12  16
ENDBRANCH  11  14
ENDBRANCH   7  11
ENDBRANCH   6   8
BRANCH   6  28
ATOM     28  CB  ILE A   4      -4.608  33.261   7.625  0.00  0.00    +0.027 C 
ATOM     29  CG2 ILE A   4      -4.921  34.546   6.965  0.00  0.00    +0.002 C 
BRANCH  28  30
ATOM     30  CG1 ILE A   4      -3.654  33.339   8.767  0.00  0.00    +0.002 C 
ATOM     31  CD1 ILE A   4      -2.400  32.507   8.708  0.00  0.00    +0.000 C 
ENDBRANCH  28  30
ENDBRANCH   6  28
ENDBRANCH   2   6
ENDBRANCH   1   4
BRANCH   1  32
ATOM     32  C   ASN A   5      -3.240  28.923   7.106  0.00  0.00    +0.241 C 
ATOM     33  N   ILE A   6      -2.644  28.074   7.939  0.00  0.00    -0.297 N 
ATOM     34  H   ILE A   6      -3.233  27.399   8.467  0.00  0.00    +0.150 HD
ATOM     35  O   ASN A   5      -2.646  29.829   6.489  0.00  0.00    -0.273 OA
BRANCH  33  36
ATOM     36  CA  ILE A   6      -1.186  28.048   8.146  0.00  0.00    +0.149 C 
BRANCH  36  37
ATOM     37  C   ILE A   6      -0.613  26.678   7.823  0.00  0.00    +0.241 C 
ATOM     38  O   ILE A   6      -0.964  25.752   8.507  0.00  0.00    -0.273 OA
ATOM     39  N   PHE A   7       0.180  26.674   6.758  0.00  0.00    -0.297 N 
ATOM     40  H   PHE A   7       0.250  27.492   6.119  0.00  0.00    +0.150 HD
BRANCH  39  41
ATOM     41  CA  PHE A   7       0.948  25.450   6.539  0.00  0.00    +0.153 C 
BRANCH  41  42
ATOM     42  C   PHE A   7       2.199  25.541   7.391  0.00  0.00    +0.241 C 
ATOM     43  N   GLY A   8       2.178  25.096   8.613  0.00  0.00    -0.295 N 
ATOM     44  H   GLY A   8       1.308  24.633   8.945  0.00  0.00    +0.150 HD
ATOM     45  O   PHE A   7       3.170  26.116   6.957  0.00  0.00    -0.273 OA
BRANCH  43  46
ATOM     46  CA  GLY A   8       3.304  25.203   9.562  0.00  0.00    +0.176 C 
BRANCH  46  47
ATOM     47  C   GLY A   8       4.183  23.962   9.614  0.00  0.00    +0.243 C 
ATOM     48  N   ASP A   9       5.056  23.820  10.546  0.00  0.00    -0.297 N 
ATOM     49  H   ASP A   9       4.996  24.415  11.397  0.00  0.00    +0.150 HD
ATOM     50  O   GLY A   8       4.162  23.200   8.637  0.00  0.00    -0.273 OA
BRANCH  48  51
ATOM     51  CA  ASP A   9       6.146  22.825  10.431  0.00  0.00    +0.148 C 
BRANCH  51  52
ATOM     52  C   ASP A   9       5.591  21.383  10.320  0.00  0.00    +0.227 C 
ATOM     53  O   ASP A   9       6.251  20.609   9.657  0.00  0.00    -0.286 OA
ENDBRANCH  51  52
BRANCH  51  54
ATOM     54  CB  ASP A   9       6.950  22.738  11.795  0.00  0.00    +0.142 C 
BRANCH  54  55
ATOM     55  CG  ASP A   9       7.625  24.107  11.950  0.00  0.00    +0.367 C 
ATOM     56  OD2 ASP A   9       7.881  24.377  13.121  0.00  0.00    -0.246 OA
ATOM     57  OD1 ASP A   9       7.847  24.898  11.000  0.00  0.00    -0.246 OA
ENDBRANCH  54  55
ENDBRANCH  51  54
ENDBRANCH  48  51
ENDBRANCH  46  47
ENDBRANCH  43  46
ENDBRANCH  41  42
BRANCH  41  58
ATOM     58  CB  PHE A   7       1.400  25.284   5.076  0.00  0.00    +0.055 C 
BRANCH  58  59
ATOM     59  CG  PHE A   7       0.132  24.935   4.276  0.00  0.00    -0.020 A 
ATOM     60  CD2 PHE A   7      -0.281  23.647   4.008  0.00  0.00    -0.004 A 
ATOM     61  CE2 PHE A   7      -1.429  23.357   3.258  0.00  0.00    -0.000 A 
ATOM     62  CZ  PHE A   7      -2.161  24.407   2.738  0.00  0.00    -0.000 A 
ATOM     63  CE1 PHE A   7      -1.751  25.710   2.927  0.00  0.00    -0.000 A 
ATOM     64  CD1 PHE A   7      -0.631  25.978   3.720  0.00  0.00    -0.004 A 
ENDBRANCH  58  59
ENDBRANCH  41  58
ENDBRANCH  39  41
ENDBRANCH  36  37
BRANCH  36  65
ATOM     65  CB  ILE A   6      -0.839  28.494   9.551  0.00  0.00    +0.027 C 
ATOM     66  CG2 ILE A   6       0.687  28.759   9.647  0.00  0.00    +0.002 C 
BRANCH  65  67
ATOM     67  CG1 ILE A   6      -1.613  29.881   9.751  0.00  0.00    +0.002 C 
ATOM     68  CD1 ILE A   6      -1.208  30.675  10.962  0.00  0.00    +0.000 C 
ENDBRANCH  65  67
ENDBRANCH  36  65
ENDBRANCH  33  36
ENDBRANCH   1  32
BRANCH   1  69
ATOM     69  CB  ASN A   5      -5.256  28.150   5.783  0.00  0.00    +0.114 C 
BRANCH  69  70
ATOM     70  CG  ASN A   5      -6.768  28.089   5.747  0.00  0.00    +0.222 C 
ATOM     71  ND2 ASN A   5      -7.313  27.586   6.822  0.00  0.00    -0.329 N 
ATOM     72 HD21 ASN A   5      -6.712  27.213   7.584  0.00  0.00    +0.145 HD
ATOM     73 HD22 ASN A   5      -8.348  27.558   6.916  0.00  0.00    +0.145 HD
ATOM     74  OD1 ASN A   5      -7.323  28.621   4.649  0.00  0.00    -0.275 OA
ENDBRANCH  69  70
ENDBRANCH   1  69
TORSDOF 30
REMARK  Name = ../refined-set-2016/4er1/4er1_pocket.pdb
REMARK  279 active torsions:
REMARK  status: ('A' for Active; 'I' for Inactive)
REMARK    1  A    between atoms: _1  and  _3
REMARK    2  A    between atoms: _3  and  _4
REMARK    3  A    between atoms: _3  and  _6
REMARK    4  A    between atoms: _6  and  _7
REMARK    5  A    between atoms: _10  and  _12
REMARK    6  A    between atoms: _12  and  _13
REMARK    7  A    between atoms: _12  and  _15
REMARK    8  A    between atoms: _15  and  _16
REMARK    9  A    between atoms: _19  and  _21
REMARK   10  A    between atoms: _21  and  _22
REMARK   11  A    between atoms: _21  and  _24
REMARK   12  A    between atoms: _24  and  _25
REMARK   13  A    between atoms: _28  and  _30
REMARK   14  A    between atoms: _30  and  _31
REMARK   15  A    between atoms: _30  and  _33
REMARK   16  A    between atoms: _33  and  _34
REMARK   17  A    between atoms: _37  and  _39
REMARK   18  A    between atoms: _39  and  _40
REMARK   19  A    between atoms: _39  and  _42
REMARK   20  A    between atoms: _42  and  _43
REMARK   21  A    between atoms: _46  and  _48
REMARK   22  A    between atoms: _48  and  _49
REMARK   23  A    between atoms: _52  and  _54
REMARK   24  A    between atoms: _54  and  _55
REMARK   25  A    between atoms: _54  and  _57
REMARK   26  A    between atoms: _57  and  _58
REMARK   27  A    between atoms: _63  and  _64
REMARK   28  A    between atoms: _66  and  _68
REMARK   29  A    between atoms: _68  and  _69
REMARK   30  A    between atoms: _68  and  _71
REMARK   31  A    between atoms: _71  and  _72
REMARK   32  A    between atoms: _75  and  _77
REMARK   33  A    between atoms: _77  and  _78
REMARK   34  A    between atoms: _77  and  _80
REMARK   35  A    between atoms: _80  and  _81
REMARK   36  A    between atoms: _87  and  _89
REMARK   37  A    between atoms: _89  and  _90
REMARK   38  A    between atoms: _89  and  _92
REMARK   39  A    between atoms: _92  and  _93
REMARK   40  A    between atoms: _96  and  _98
REMARK   41  A    between atoms: _98  and  _99
REMARK   42  A    between atoms: _98  and  _101
REMARK   43  A    between atoms: _101  and  _102
REMARK   44  A    between atoms: _105  and  _107
REMARK   45  A    between atoms: _107  and  _108
REMARK   46  A    between atoms: _110  and  _112
REMARK   47  A    between atoms: _112  and  _113
REMARK   48  A    between atoms: _112  and  _115
REMARK   49  A    between atoms: _115  and  _116
REMARK   50  A    between atoms: _118  and  _120
REMARK   51  A    between atoms: _120  and  _121
REMARK   52  A    between atoms: _120  and  _123
REMARK   53  A    between atoms: _123  and  _124
REMARK   54  A    between atoms: _126  and  _128
REMARK   55  A    between atoms: _128  and  _129
REMARK   56  A    between atoms: _128  and  _131
REMARK   57  A    between atoms: _131  and  _132
REMARK   58  A    between atoms: _135  and  _137
REMARK   59  A    between atoms: _137  and  _138
REMARK   60  A    between atoms: _137  and  _140
REMARK   61  A    between atoms: _140  and  _141
REMARK   62  A    between atoms: _151  and  _153
REMARK   63  A    between atoms: _153  and  _154
REMARK   64  A    between atoms: _153  and  _156
REMARK   65  A    between atoms: _156  and  _157
REMARK   66  A    between atoms: _159  and  _161
REMARK   67  A    between atoms: _161  and  _162
REMARK   68  A    between atoms: _161  and  _164
REMARK   69  A    between atoms: _164  and  _165
REMARK   70  A    between atoms: _168  and  _170
REMARK   71  A    between atoms: _170  and  _171
REMARK   72  A    between atoms: _170  and  _173
REMARK   73  A    between atoms: _173  and  _174
REMARK   74  A    between atoms: _176  and  _178
REMARK   75  A    between atoms: _178  and  _179
REMARK   76  A    between atoms: _178  and  _181
REMARK   77  A    between atoms: _181  and  _182
REMARK   78  A    between atoms: _187  and  _188
REMARK   79  A    between atoms: _190  and  _192
REMARK   80  A    between atoms: _192  and  _193
REMARK   81  A    between atoms: _195  and  _197
REMARK   82  A    between atoms: _197  and  _198
REMARK   83  A    between atoms: _197  and  _200
REMARK   84  A    between atoms: _200  and  _201
REMARK   85  A    between atoms: _204  and  _206
REMARK   86  A    between atoms: _206  and  _207
REMARK   87  A    between atoms: _209  and  _211
REMARK   88  A    between atoms: _211  and  _212
REMARK   89  A    between atoms: _211  and  _214
REMARK   90  A    between atoms: _214  and  _215
REMARK   91  A    between atoms: _217  and  _219
REMARK   92  A    between atoms: _219  and  _220
REMARK   93  A    between atoms: _219  and  _222
REMARK   94  A    between atoms: _222  and  _223
REMARK   95  A    between atoms: _225  and  _227
REMARK   96  A    between atoms: _227  and  _228
REMARK   97  A    between atoms: _227  and  _230
REMARK   98  A    between atoms: _230  and  _231
REMARK   99  A    between atoms: _233  and  _235
REMARK  100  A    between atoms: _235  and  _236
REMARK  101  A    between atoms: _235  and  _238
REMARK  102  A    between atoms: _238  and  _239
REMARK  103  A    between atoms: _241  and  _243
REMARK  104  A    between atoms: _243  and  _244
REMARK  105  A    between atoms: _243  and  _246
REMARK  106  A    between atoms: _246  and  _247
REMARK  107  A    between atoms: _249  and  _251
REMARK  108  A    between atoms: _251  and  _252
REMARK  109  A    between atoms: _251  and  _254
REMARK  110  A    between atoms: _254  and  _255
REMARK  111  A    between atoms: _261  and  _263
REMARK  112  A    between atoms: _263  and  _264
REMARK  113  A    between atoms: _263  and  _266
REMARK  114  A    between atoms: _266  and  _267
REMARK  115  A    between atoms: _270  and  _272
REMARK  116  A    between atoms: _272  and  _273
REMARK  117  A    between atoms: _272  and  _275
REMARK  118  A    between atoms: _275  and  _276
REMARK  119  A    between atoms: _276  and  _277
REMARK  120  A    between atoms: _280  and  _282
REMARK  121  A    between atoms: _282  and  _283
REMARK  122  A    between atoms: _282  and  _285
REMARK  123  A    between atoms: _285  and  _286
REMARK  124  A    between atoms: _289  and  _291
REMARK  125  A    between atoms: _291  and  _292
REMARK  126  A    between atoms: _291  and  _294
REMARK  127  A    between atoms: _294  and  _295
REMARK  128  A    between atoms: _297  and  _299
REMARK  129  A    between atoms: _299  and  _300
REMARK  130  A    between atoms: _299  and  _302
REMARK  131  A    between atoms: _302  and  _303
REMARK  132  A    between atoms: _306  and  _308
REMARK  133  A    between atoms: _308  and  _309
REMARK  134  A    between atoms: _308  and  _311
REMARK  135  A    between atoms: _311  and  _312
REMARK  136  A    between atoms: _315  and  _317
REMARK  137  A    between atoms: _317  and  _318
REMARK  138  A    between atoms: _320  and  _322
REMARK  139  A    between atoms: _322  and  _323
REMARK  140  A    between atoms: _322  and  _325
REMARK  141  A    between atoms: _325  and  _326
REMARK  142  A    between atoms: _329  and  _331
REMARK  143  A    between atoms: _331  and  _332
REMARK  144  A    between atoms: _331  and  _334
REMARK  145  A    between atoms: _334  and  _335
REMARK  146  A    between atoms: _338  and  _340
REMARK  147  A    between atoms: _340  and  _341
REMARK  148  A    between atoms: _340  and  _343
REMARK  149  A    between atoms: _343  and  _344
REMARK  150  A    between atoms: _347  and  _349
REMARK  151  A    between atoms: _349  and  _350
REMARK  152  A    between atoms: _353  and  _355
REMARK  153  A    between atoms: _355  and  _356
REMARK  154  A    between atoms: _355  and  _358
REMARK  155  A    between atoms: _358  and  _359
REMARK  156  A    between atoms: _362  and  _364
REMARK  157  A    between atoms: _364  and  _365
REMARK  158  A    between atoms: _364  and  _367
REMARK  159  A    between atoms: _367  and  _368
REMARK  160  A    between atoms: _371  and  _373
REMARK  161  A    between atoms: _373  and  _374
REMARK  162  A    between atoms: _373  and  _376
REMARK  163  A    between atoms: _376  and  _377
REMARK  164  A    between atoms: _382  and  _384
REMARK  165  A    between atoms: _384  and  _385
REMARK  166  A    between atoms: _384  and  _387
REMARK  167  A    between atoms: _387  and  _388
REMARK  168  A    between atoms: _391  and  _393
REMARK  169  A    between atoms: _393  and  _394
REMARK  170  A    between atoms: _393  and  _396
REMARK  171  A    between atoms: _396  and  _397
REMARK  172  A    between atoms: _397  and  _398
REMARK  173  A    between atoms: _403  and  _405
REMARK  174  A    between atoms: _405  and  _406
REMARK  175  A    between atoms: _408  and  _410
REMARK  176  A    between atoms: _410  and  _411
REMARK  177  A    between atoms: _410  and  _413
REMARK  178  A    between atoms: _413  and  _414
REMARK  179  A    between atoms: _420  and  _422
REMARK  180  A    between atoms: _422  and  _423
REMARK  181  A    between atoms: _425  and  _427
REMARK  182  A    between atoms: _427  and  _428
REMARK  183  A    between atoms: _427  and  _430
REMARK  184  A    between atoms: _430  and  _431
REMARK  185  A    between atoms: _434  and  _436
REMARK  186  A    between atoms: _436  and  _437
REMARK  187  A    between atoms: _440  and  _442
REMARK  188  A    between atoms: _442  and  _443
REMARK  189  A    between atoms: _442  and  _445
REMARK  190  A    between atoms: _445  and  _446
REMARK  191  A    between atoms: _449  and  _451
REMARK  192  A    between atoms: _451  and  _452
REMARK  193  A    between atoms: _451  and  _454
REMARK  194  A    between atoms: _454  and  _455
REMARK  195  A    between atoms: _458  and  _460
REMARK  196  A    between atoms: _460  and  _461
REMARK  197  A    between atoms: _463  and  _465
REMARK  198  A    between atoms: _465  and  _466
REMARK  199  A    between atoms: _465  and  _468
REMARK  200  A    between atoms: _468  and  _469
REMARK  201  A    between atoms: _472  and  _474
REMARK  202  A    between atoms: _474  and  _475
REMARK  203  A    between atoms: _474  and  _477
REMARK  204  A    between atoms: _477  and  _478
REMARK  205  A    between atoms: _481  and  _483
REMARK  206  A    between atoms: _483  and  _484
REMARK  207  A    between atoms: _483  and  _486
REMARK  208  A    between atoms: _486  and  _487
REMARK  209  A    between atoms: _490  and  _492
REMARK  210  A    between atoms: _492  and  _493
REMARK  211  A    between atoms: _492  and  _495
REMARK  212  A    between atoms: _495  and  _496
REMARK  213  A    between atoms: _499  and  _501
REMARK  214  A    between atoms: _501  and  _502
REMARK  215  A    between atoms: _501  and  _504
REMARK  216  A    between atoms: _504  and  _505
REMARK  217  A    between atoms: _510  and  _511
REMARK  218  A    between atoms: _513  and  _515
REMARK  219  A    between atoms: _515  and  _516
REMARK  220  A    between atoms: _515  and  _518
REMARK  221  A    between atoms: _521  and  _523
REMARK  222  A    between atoms: _523  and  _524
REMARK  223  A    between atoms: _526  and  _528
REMARK  224  A    between atoms: _528  and  _529
REMARK  225  A    between atoms: _528  and  _531
REMARK  226  A    between atoms: _531  and  _532
REMARK  227  A    between atoms: _538  and  _540
REMARK  228  A    between atoms: _540  and  _541
REMARK  229  A    between atoms: _543  and  _545
REMARK  230  A    between atoms: _545  and  _546
REMARK  231  A    between atoms: _545  and  _548
REMARK  232  A    between atoms: _548  and  _549
REMARK  233  A    between atoms: _555  and  _557
REMARK  234  A    between atoms: _557  and  _558
REMARK  235  A    between atoms: _560  and  _562
REMARK  236  A    between atoms: _562  and  _563
REMARK  237  A    between atoms: _565  and  _567
REMARK  238  A    between atoms: _567  and  _568
REMARK  239  A    between atoms: _567  and  _570
REMARK  240  A    between atoms: _570  and  _571
REMARK  241  A    between atoms: _571  and  _572
REMARK  242  A    between atoms: _577  and  _579
REMARK  243  A    between atoms: _579  and  _580
REMARK  244  A    between atoms: _579  and  _582
REMARK  245  A    between atoms: _582  and  _583
REMARK  246  A    between atoms: _585  and  _587
REMARK  247  A    between atoms: _587  and  _588
REMARK  248  A    between atoms: _587  and  _590
REMARK  249  A    between atoms: _590  and  _591
REMARK  250  A    between atoms: _593  and  _595
REMARK  251  A    between atoms: _595  and  _596
REMARK  252  A    between atoms: _598  and  _600
REMARK  253  A    between atoms: _600  and  _601
REMARK  254  A    between atoms: _600  and  _603
REMARK  255  A    between atoms: _603  and  _604
REMARK  256  A    between atoms: _607  and  _609
REMARK  257  A    between atoms: _609  and  _610
REMARK  258  A    between atoms: _612  and  _614
REMARK  259  A    between atoms: _614  and  _615
REMARK  260  A    between atoms: _614  and  _617
REMARK  261  A    between atoms: _617  and  _618
REMARK  262  A    between atoms: _621  and  _623
REMARK  263  A    between atoms: _623  and  _624
REMARK  264  A    between atoms: _623  and  _626
REMARK  265  A    between atoms: _626  and  _627
REMARK  266  A    between atoms: _632  and  _634
REMARK  267  A    between atoms: _634  and  _635
REMARK  268  A    between atoms: _634  and  _637
REMARK  269  A    between atoms: _637  and  _638
REMARK  270  A    between atoms: _641  and  _643
REMARK  271  A    between atoms: _643  and  _644
REMARK  272  A    between atoms: _643  and  _646
REMARK  273  A    between atoms: _646  and  _647
REMARK  274  A    between atoms: _653  and  _655
REMARK  275  A    between atoms: _655  and  _656
REMARK  276  A    between atoms: _658  and  _660
REMARK  277  A    between atoms: _660  and  _661
REMARK  278  A    between atoms: _660  and  _663
REMARK  279  A    between atoms: _663  and  _664
REMARK                            x       y       z     vdW  Elec       q    Type
REMARK                         _______ _______ _______ _____ _____    ______ ____
ROOT
ATOM      1  O   HOH     1       6.515  20.468  14.272  0.00  0.00    +0.000 OA
ENDROOT
TORSDOF 0
REMARK  Name = ../refined-set-2016/4er1/4er1_pocket.pdb
REMARK  279 active torsions:
REMARK  status: ('A' for Active; 'I' for Inactive)
REMARK    1  A    between atoms: _1  and  _3
REMARK    2  A    between atoms: _3  and  _4
REMARK    3  A    between atoms: _3  and  _6
REMARK    4  A    between atoms: _6  and  _7
REMARK    5  A    between atoms: _10  and  _12
REMARK    6  A    between atoms: _12  and  _13
REMARK    7  A    between atoms: _12  and  _15
REMARK    8  A    between atoms: _15  and  _16
REMARK    9  A    between atoms: _19  and  _21
REMARK   10  A    between atoms: _21  and  _22
REMARK   11  A    between atoms: _21  and  _24
REMARK   12  A    between atoms: _24  and  _25
REMARK   13  A    between atoms: _28  and  _30
REMARK   14  A    between atoms: _30  and  _31
REMARK   15  A    between atoms: _30  and  _33
REMARK   16  A    between atoms: _33  and  _34
REMARK   17  A    between atoms: _37  and  _39
REMARK   18  A    between atoms: _39  and  _40
REMARK   19  A    between atoms: _39  and  _42
REMARK   20  A    between atoms: _42  and  _43
REMARK   21  A    between atoms: _46  and  _48
REMARK   22  A    between atoms: _48  and  _49
REMARK   23  A    between atoms: _52  and  _54
REMARK   24  A    between atoms: _54  and  _55
REMARK   25  A    between atoms: _54  and  _57
REMARK   26  A    between atoms: _57  and  _58
REMARK   27  A    between atoms: _63  and  _64
REMARK   28  A    between atoms: _66  and  _68
REMARK   29  A    between atoms: _68  and  _69
REMARK   30  A    between atoms: _68  and  _71
REMARK   31  A    between atoms: _71  and  _72
REMARK   32  A    between atoms: _75  and  _77
REMARK   33  A    between atoms: _77  and  _78
REMARK   34  A    between atoms: _77  and  _80
REMARK   35  A    between atoms: _80  and  _81
REMARK   36  A    between atoms: _87  and  _89
REMARK   37  A    between atoms: _89  and  _90
REMARK   38  A    between atoms: _89  and  _92
REMARK   39  A    between atoms: _92  and  _93
REMARK   40  A    between atoms: _96  and  _98
REMARK   41  A    between atoms: _98  and  _99
REMARK   42  A    between atoms: _98  and  _101
REMARK   43  A    between atoms: _101  and  _102
REMARK   44  A    between atoms: _105  and  _107
REMARK   45  A    between atoms: _107  and  _108
REMARK   46  A    between atoms: _110  and  _112
REMARK   47  A    between atoms: _112  and  _113
REMARK   48  A    between atoms: _112  and  _115
REMARK   49  A    between atoms: _115  and  _116
REMARK   50  A    between atoms: _118  and  _120
REMARK   51  A    between atoms: _120  and  _121
REMARK   52  A    between atoms: _120  and  _123
REMARK   53  A    between atoms: _123  and  _124
REMARK   54  A    between atoms: _126  and  _128
REMARK   55  A    between atoms: _128  and  _129
REMARK   56  A    between atoms: _128  and  _131
REMARK   57  A    between atoms: _131  and  _132
REMARK   58  A    between atoms: _135  and  _137
REMARK   59  A    between atoms: _137  and  _138
REMARK   60  A    between atoms: _137  and  _140
REMARK   61  A    between atoms: _140  and  _141
REMARK   62  A    between atoms: _151  and  _153
REMARK   63  A    between atoms: _153  and  _154
REMARK   64  A    between atoms: _153  and  _156
REMARK   65  A    between atoms: _156  and  _157
REMARK   66  A    between atoms: _159  and  _161
REMARK   67  A    between atoms: _161  and  _162
REMARK   68  A    between atoms: _161  and  _164
REMARK   69  A    between atoms: _164  and  _165
REMARK   70  A    between atoms: _168  and  _170
REMARK   71  A    between atoms: _170  and  _171
REMARK   72  A    between atoms: _170  and  _173
REMARK   73  A    between atoms: _173  and  _174
REMARK   74  A    between atoms: _176  and  _178
REMARK   75  A    between atoms: _178  and  _179
REMARK   76  A    between atoms: _178  and  _181
REMARK   77  A    between atoms: _181  and  _182
REMARK   78  A    between atoms: _187  and  _188
REMARK   79  A    between atoms: _190  and  _192
REMARK   80  A    between atoms: _192  and  _193
REMARK   81  A    between atoms: _195  and  _197
REMARK   82  A    between atoms: _197  and  _198
REMARK   83  A    between atoms: _197  and  _200
REMARK   84  A    between atoms: _200  and  _201
REMARK   85  A    between atoms: _204  and  _206
REMARK   86  A    between atoms: _206  and  _207
REMARK   87  A    between atoms: _209  and  _211
REMARK   88  A    between atoms: _211  and  _212
REMARK   89  A    between atoms: _211  and  _214
REMARK   90  A    between atoms: _214  and  _215
REMARK   91  A    between atoms: _217  and  _219
REMARK   92  A    between atoms: _219  and  _220
REMARK   93  A    between atoms: _219  and  _222
REMARK   94  A    between atoms: _222  and  _223
REMARK   95  A    between atoms: _225  and  _227
REMARK   96  A    between atoms: _227  and  _228
REMARK   97  A    between atoms: _227  and  _230
REMARK   98  A    between atoms: _230  and  _231
REMARK   99  A    between atoms: _233  and  _235
REMARK  100  A    between atoms: _235  and  _236
REMARK  101  A    between atoms: _235  and  _238
REMARK  102  A    between atoms: _238  and  _239
REMARK  103  A    between atoms: _241  and  _243
REMARK  104  A    between atoms: _243  and  _244
REMARK  105  A    between atoms: _243  and  _246
REMARK  106  A    between atoms: _246  and  _247
REMARK  107  A    between atoms: _249  and  _251
REMARK  108  A    between atoms: _251  and  _252
REMARK  109  A    between atoms: _251  and  _254
REMARK  110  A    between atoms: _254  and  _255
REMARK  111  A    between atoms: _261  and  _263
REMARK  112  A    between atoms: _263  and  _264
REMARK  113  A    between atoms: _263  and  _266
REMARK  114  A    between atoms: _266  and  _267
REMARK  115  A    between atoms: _270  and  _272
REMARK  116  A    between atoms: _272  and  _273
REMARK  117  A    between atoms: _272  and  _275
REMARK  118  A    between atoms: _275  and  _276
REMARK  119  A    between atoms: _276  and  _277
REMARK  120  A    between atoms: _280  and  _282
REMARK  121  A    between atoms: _282  and  _283
REMARK  122  A    between atoms: _282  and  _285
REMARK  123  A    between atoms: _285  and  _286
REMARK  124  A    between atoms: _289  and  _291
REMARK  125  A    between atoms: _291  and  _292
REMARK  126  A    between atoms: _291  and  _294
REMARK  127  A    between atoms: _294  and  _295
REMARK  128  A    between atoms: _297  and  _299
REMARK  129  A    between atoms: _299  and  _300
REMARK  130  A    between atoms: _299  and  _302
REMARK  131  A    between atoms: _302  and  _303
REMARK  132  A    between atoms: _306  and  _308
REMARK  133  A    between atoms: _308  and  _309
REMARK  134  A    between atoms: _308  and  _311
REMARK  135  A    between atoms: _311  and  _312
REMARK  136  A    between atoms: _315  and  _317
REMARK  137  A    between atoms: _317  and  _318
REMARK  138  A    between atoms: _320  and  _322
REMARK  139  A    between atoms: _322  and  _323
REMARK  140  A    between atoms: _322  and  _325
REMARK  141  A    between atoms: _325  and  _326
REMARK  142  A    between atoms: _329  and  _331
REMARK  143  A    between atoms: _331  and  _332
REMARK  144  A    between atoms: _331  and  _334
REMARK  145  A    between atoms: _334  and  _335
REMARK  146  A    between atoms: _338  and  _340
REMARK  147  A    between atoms: _340  and  _341
REMARK  148  A    between atoms: _340  and  _343
REMARK  149  A    between atoms: _343  and  _344
REMARK  150  A    between atoms: _347  and  _349
REMARK  151  A    between atoms: _349  and  _350
REMARK  152  A    between atoms: _353  and  _355
REMARK  153  A    between atoms: _355  and  _356
REMARK  154  A    between atoms: _355  and  _358
REMARK  155  A    between atoms: _358  and  _359
REMARK  156  A    between atoms: _362  and  _364
REMARK  157  A    between atoms: _364  and  _365
REMARK  158  A    between atoms: _364  and  _367
REMARK  159  A    between atoms: _367  and  _368
REMARK  160  A    between atoms: _371  and  _373
REMARK  161  A    between atoms: _373  and  _374
REMARK  162  A    between atoms: _373  and  _376
REMARK  163  A    between atoms: _376  and  _377
REMARK  164  A    between atoms: _382  and  _384
REMARK  165  A    between atoms: _384  and  _385
REMARK  166  A    between atoms: _384  and  _387
REMARK  167  A    between atoms: _387  and  _388
REMARK  168  A    between atoms: _391  and  _393
REMARK  169  A    between atoms: _393  and  _394
REMARK  170  A    between atoms: _393  and  _396
REMARK  171  A    between atoms: _396  and  _397
REMARK  172  A    between atoms: _397  and  _398
REMARK  173  A    between atoms: _403  and  _405
REMARK  174  A    between atoms: _405  and  _406
REMARK  175  A    between atoms: _408  and  _410
REMARK  176  A    between atoms: _410  and  _411
REMARK  177  A    between atoms: _410  and  _413
REMARK  178  A    between atoms: _413  and  _414
REMARK  179  A    between atoms: _420  and  _422
REMARK  180  A    between atoms: _422  and  _423
REMARK  181  A    between atoms: _425  and  _427
REMARK  182  A    between atoms: _427  and  _428
REMARK  183  A    between atoms: _427  and  _430
REMARK  184  A    between atoms: _430  and  _431
REMARK  185  A    between atoms: _434  and  _436
REMARK  186  A    between atoms: _436  and  _437
REMARK  187  A    between atoms: _440  and  _442
REMARK  188  A    between atoms: _442  and  _443
REMARK  189  A    between atoms: _442  and  _445
REMARK  190  A    between atoms: _445  and  _446
REMARK  191  A    between atoms: _449  and  _451
REMARK  192  A    between atoms: _451  and  _452
REMARK  193  A    between atoms: _451  and  _454
REMARK  194  A    between atoms: _454  and  _455
REMARK  195  A    between atoms: _458  and  _460
REMARK  196  A    between atoms: _460  and  _461
REMARK  197  A    between atoms: _463  and  _465
REMARK  198  A    between atoms: _465  and  _466
REMARK  199  A    between atoms: _465  and  _468
REMARK  200  A    between atoms: _468  and  _469
REMARK  201  A    between atoms: _472  and  _474
REMARK  202  A    between atoms: _474  and  _475
REMARK  203  A    between atoms: _474  and  _477
REMARK  204  A    between atoms: _477  and  _478
REMARK  205  A    between atoms: _481  and  _483
REMARK  206  A    between atoms: _483  and  _484
REMARK  207  A    between atoms: _483  and  _486
REMARK  208  A    between atoms: _486  and  _487
REMARK  209  A    between atoms: _490  and  _492
REMARK  210  A    between atoms: _492  and  _493
REMARK  211  A    between atoms: _492  and  _495
REMARK  212  A    between atoms: _495  and  _496
REMARK  213  A    between atoms: _499  and  _501
REMARK  214  A    between atoms: _501  and  _502
REMARK  215  A    between atoms: _501  and  _504
REMARK  216  A    between atoms: _504  and  _505
REMARK  217  A    between atoms: _510  and  _511
REMARK  218  A    between atoms: _513  and  _515
REMARK  219  A    between atoms: _515  and  _516
REMARK  220  A    between atoms: _515  and  _518
REMARK  221  A    between atoms: _521  and  _523
REMARK  222  A    between atoms: _523  and  _524
REMARK  223  A    between atoms: _526  and  _528
REMARK  224  A    between atoms: _528  and  _529
REMARK  225  A    between atoms: _528  and  _531
REMARK  226  A    between atoms: _531  and  _532
REMARK  227  A    between atoms: _538  and  _540
REMARK  228  A    between atoms: _540  and  _541
REMARK  229  A    between atoms: _543  and  _545
REMARK  230  A    between atoms: _545  and  _546
REMARK  231  A    between atoms: _545  and  _548
REMARK  232  A    between atoms: _548  and  _549
REMARK  233  A    between atoms: _555  and  _557
REMARK  234  A    between atoms: _557  and  _558
REMARK  235  A    between atoms: _560  and  _562
REMARK  236  A    between atoms: _562  and  _563
REMARK  237  A    between atoms: _565  and  _567
REMARK  238  A    between atoms: _567  and  _568
REMARK  239  A    between atoms: _567  and  _570
REMARK  240  A    between atoms: _570  and  _571
REMARK  241  A    between atoms: _571  and  _572
REMARK  242  A    between atoms: _577  and  _579
REMARK  243  A    between atoms: _579  and  _580
REMARK  244  A    between atoms: _579  and  _582
REMARK  245  A    between atoms: _582  and  _583
REMARK  246  A    between atoms: _585  and  _587
REMARK  247  A    between atoms: _587  and  _588
REMARK  248  A    between atoms: _587  and  _590
REMARK  249  A    between atoms: _590  and  _591
REMARK  250  A    between atoms: _593  and  _595
REMARK  251  A    between atoms: _595  and  _596
REMARK  252  A    between atoms: _598  and  _600
REMARK  253  A    between atoms: _600  and  _601
REMARK  254  A    between atoms: _600  and  _603
REMARK  255  A    between atoms: _603  and  _604
REMARK  256  A    between atoms: _607  and  _609
REMARK  257  A    between atoms: _609  and  _610
REMARK  258  A    between atoms: _612  and  _614
REMARK  259  A    between atoms: _614  and  _615
REMARK  260  A    between atoms: _614  and  _617
REMARK  261  A    between atoms: _617  and  _618
REMARK  262  A    between atoms: _621  and  _623
REMARK  263  A    between atoms: _623  and  _624
REMARK  264  A    between atoms: _623  and  _626
REMARK  265  A    between atoms: _626  and  _627
REMARK  266  A    between atoms: _632  and  _634
REMARK  267  A    between atoms: _634  and  _635
REMARK  268  A    between atoms: _634  and  _637
REMARK  269  A    between atoms: _637  and  _638
REMARK  270  A    between atoms: _641  and  _643
REMARK  271  A    between atoms: _643  and  _644
REMARK  272  A    between atoms: _643  and  _646
REMARK  273  A    between atoms: _646  and  _647
REMARK  274  A    between atoms: _653  and  _655
REMARK  275  A    between atoms: _655  and  _656
REMARK  276  A    between atoms: _658  and  _660
REMARK  277  A    between atoms: _660  and  _661
REMARK  278  A    between atoms: _660  and  _663
REMARK  279  A    between atoms: _663  and  _664
REMARK                            x       y       z     vdW  Elec       q    Type
REMARK                         _______ _______ _______ _____ _____    ______ ____
ROOT
ATOM      1  O   HOH     1       8.394  28.932  15.936  0.00  0.00    +0.000 OA
ENDROOT
TORSDOF 0
REMARK  Name = ../refined-set-2016/4er1/4er1_pocket.pdb
REMARK  279 active torsions:
REMARK  status: ('A' for Active; 'I' for Inactive)
REMARK    1  A    between atoms: _1  and  _3
REMARK    2  A    between atoms: _3  and  _4
REMARK    3  A    between atoms: _3  and  _6
REMARK    4  A    between atoms: _6  and  _7
REMARK    5  A    between atoms: _10  and  _12
REMARK    6  A    between atoms: _12  and  _13
REMARK    7  A    between atoms: _12  and  _15
REMARK    8  A    between atoms: _15  and  _16
REMARK    9  A    between atoms: _19  and  _21
REMARK   10  A    between atoms: _21  and  _22
REMARK   11  A    between atoms: _21  and  _24
REMARK   12  A    between atoms: _24  and  _25
REMARK   13  A    between atoms: _28  and  _30
REMARK   14  A    between atoms: _30  and  _31
REMARK   15  A    between atoms: _30  and  _33
REMARK   16  A    between atoms: _33  and  _34
REMARK   17  A    between atoms: _37  and  _39
REMARK   18  A    between atoms: _39  and  _40
REMARK   19  A    between atoms: _39  and  _42
REMARK   20  A    between atoms: _42  and  _43
REMARK   21  A    between atoms: _46  and  _48
REMARK   22  A    between atoms: _48  and  _49
REMARK   23  A    between atoms: _52  and  _54
REMARK   24  A    between atoms: _54  and  _55
REMARK   25  A    between atoms: _54  and  _57
REMARK   26  A    between atoms: _57  and  _58
REMARK   27  A    between atoms: _63  and  _64
REMARK   28  A    between atoms: _66  and  _68
REMARK   29  A    between atoms: _68  and  _69
REMARK   30  A    between atoms: _68  and  _71
REMARK   31  A    between atoms: _71  and  _72
REMARK   32  A    between atoms: _75  and  _77
REMARK   33  A    between atoms: _77  and  _78
REMARK   34  A    between atoms: _77  and  _80
REMARK   35  A    between atoms: _80  and  _81
REMARK   36  A    between atoms: _87  and  _89
REMARK   37  A    between atoms: _89  and  _90
REMARK   38  A    between atoms: _89  and  _92
REMARK   39  A    between atoms: _92  and  _93
REMARK   40  A    between atoms: _96  and  _98
REMARK   41  A    between atoms: _98  and  _99
REMARK   42  A    between atoms: _98  and  _101
REMARK   43  A    between atoms: _101  and  _102
REMARK   44  A    between atoms: _105  and  _107
REMARK   45  A    between atoms: _107  and  _108
REMARK   46  A    between atoms: _110  and  _112
REMARK   47  A    between atoms: _112  and  _113
REMARK   48  A    between atoms: _112  and  _115
REMARK   49  A    between atoms: _115  and  _116
REMARK   50  A    between atoms: _118  and  _120
REMARK   51  A    between atoms: _120  and  _121
REMARK   52  A    between atoms: _120  and  _123
REMARK   53  A    between atoms: _123  and  _124
REMARK   54  A    between atoms: _126  and  _128
REMARK   55  A    between atoms: _128  and  _129
REMARK   56  A    between atoms: _128  and  _131
REMARK   57  A    between atoms: _131  and  _132
REMARK   58  A    between atoms: _135  and  _137
REMARK   59  A    between atoms: _137  and  _138
REMARK   60  A    between atoms: _137  and  _140
REMARK   61  A    between atoms: _140  and  _141
REMARK   62  A    between atoms: _151  and  _153
REMARK   63  A    between atoms: _153  and  _154
REMARK   64  A    between atoms: _153  and  _156
REMARK   65  A    between atoms: _156  and  _157
REMARK   66  A    between atoms: _159  and  _161
REMARK   67  A    between atoms: _161  and  _162
REMARK   68  A    between atoms: _161  and  _164
REMARK   69  A    between atoms: _164  and  _165
REMARK   70  A    between atoms: _168  and  _170
REMARK   71  A    between atoms: _170  and  _171
REMARK   72  A    between atoms: _170  and  _173
REMARK   73  A    between atoms: _173  and  _174
REMARK   74  A    between atoms: _176  and  _178
REMARK   75  A    between atoms: _178  and  _179
REMARK   76  A    between atoms: _178  and  _181
REMARK   77  A    between atoms: _181  and  _182
REMARK   78  A    between atoms: _187  and  _188
REMARK   79  A    between atoms: _190  and  _192
REMARK   80  A    between atoms: _192  and  _193
REMARK   81  A    between atoms: _195  and  _197
REMARK   82  A    between atoms: _197  and  _198
REMARK   83  A    between atoms: _197  and  _200
REMARK   84  A    between atoms: _200  and  _201
REMARK   85  A    between atoms: _204  and  _206
REMARK   86  A    between atoms: _206  and  _207
REMARK   87  A    between atoms: _209  and  _211
REMARK   88  A    between atoms: _211  and  _212
REMARK   89  A    between atoms: _211  and  _214
REMARK   90  A    between atoms: _214  and  _215
REMARK   91  A    between atoms: _217  and  _219
REMARK   92  A    between atoms: _219  and  _220
REMARK   93  A    between atoms: _219  and  _222
REMARK   94  A    between atoms: _222  and  _223
REMARK   95  A    between atoms: _225  and  _227
REMARK   96  A    between atoms: _227  and  _228
REMARK   97  A    between atoms: _227  and  _230
REMARK   98  A    between atoms: _230  and  _231
REMARK   99  A    between atoms: _233  and  _235
REMARK  100  A    between atoms: _235  and  _236
REMARK  101  A    between atoms: _235  and  _238
REMARK  102  A    between atoms: _238  and  _239
REMARK  103  A    between atoms: _241  and  _243
REMARK  104  A    between atoms: _243  and  _244
REMARK  105  A    between atoms: _243  and  _246
REMARK  106  A    between atoms: _246  and  _247
REMARK  107  A    between atoms: _249  and  _251
REMARK  108  A    between atoms: _251  and  _252
REMARK  109  A    between atoms: _251  and  _254
REMARK  110  A    between atoms: _254  and  _255
REMARK  111  A    between atoms: _261  and  _263
REMARK  112  A    between atoms: _263  and  _264
REMARK  113  A    between atoms: _263  and  _266
REMARK  114  A    between atoms: _266  and  _267
REMARK  115  A    between atoms: _270  and  _272
REMARK  116  A    between atoms: _272  and  _273
REMARK  117  A    between atoms: _272  and  _275
REMARK  118  A    between atoms: _275  and  _276
REMARK  119  A    between atoms: _276  and  _277
REMARK  120  A    between atoms: _280  and  _282
REMARK  121  A    between atoms: _282  and  _283
REMARK  122  A    between atoms: _282  and  _285
REMARK  123  A    between atoms: _285  and  _286
REMARK  124  A    between atoms: _289  and  _291
REMARK  125  A    between atoms: _291  and  _292
REMARK  126  A    between atoms: _291  and  _294
REMARK  127  A    between atoms: _294  and  _295
REMARK  128  A    between atoms: _297  and  _299
REMARK  129  A    between atoms: _299  and  _300
REMARK  130  A    between atoms: _299  and  _302
REMARK  131  A    between atoms: _302  and  _303
REMARK  132  A    between atoms: _306  and  _308
REMARK  133  A    between atoms: _308  and  _309
REMARK  134  A    between atoms: _308  and  _311
REMARK  135  A    between atoms: _311  and  _312
REMARK  136  A    between atoms: _315  and  _317
REMARK  137  A    between atoms: _317  and  _318
REMARK  138  A    between atoms: _320  and  _322
REMARK  139  A    between atoms: _322  and  _323
REMARK  140  A    between atoms: _322  and  _325
REMARK  141  A    between atoms: _325  and  _326
REMARK  142  A    between atoms: _329  and  _331
REMARK  143  A    between atoms: _331  and  _332
REMARK  144  A    between atoms: _331  and  _334
REMARK  145  A    between atoms: _334  and  _335
REMARK  146  A    between atoms: _338  and  _340
REMARK  147  A    between atoms: _340  and  _341
REMARK  148  A    between atoms: _340  and  _343
REMARK  149  A    between atoms: _343  and  _344
REMARK  150  A    between atoms: _347  and  _349
REMARK  151  A    between atoms: _349  and  _350
REMARK  152  A    between atoms: _353  and  _355
REMARK  153  A    between atoms: _355  and  _356
REMARK  154  A    between atoms: _355  and  _358
REMARK  155  A    between atoms: _358  and  _359
REMARK  156  A    between atoms: _362  and  _364
REMARK  157  A    between atoms: _364  and  _365
REMARK  158  A    between atoms: _364  and  _367
REMARK  159  A    between atoms: _367  and  _368
REMARK  160  A    between atoms: _371  and  _373
REMARK  161  A    between atoms: _373  and  _374
REMARK  162  A    between atoms: _373  and  _376
REMARK  163  A    between atoms: _376  and  _377
REMARK  164  A    between atoms: _382  and  _384
REMARK  165  A    between atoms: _384  and  _385
REMARK  166  A    between atoms: _384  and  _387
REMARK  167  A    between atoms: _387  and  _388
REMARK  168  A    between atoms: _391  and  _393
REMARK  169  A    between atoms: _393  and  _394
REMARK  170  A    between atoms: _393  and  _396
REMARK  171  A    between atoms: _396  and  _397
REMARK  172  A    between atoms: _397  and  _398
REMARK  173  A    between atoms: _403  and  _405
REMARK  174  A    between atoms: _405  and  _406
REMARK  175  A    between atoms: _408  and  _410
REMARK  176  A    between atoms: _410  and  _411
REMARK  177  A    between atoms: _410  and  _413
REMARK  178  A    between atoms: _413  and  _414
REMARK  179  A    between atoms: _420  and  _422
REMARK  180  A    between atoms: _422  and  _423
REMARK  181  A    between atoms: _425  and  _427
REMARK  182  A    between atoms: _427  and  _428
REMARK  183  A    between atoms: _427  and  _430
REMARK  184  A    between atoms: _430  and  _431
REMARK  185  A    between atoms: _434  and  _436
REMARK  186  A    between atoms: _436  and  _437
REMARK  187  A    between atoms: _440  and  _442
REMARK  188  A    between atoms: _442  and  _443
REMARK  189  A    between atoms: _442  and  _445
REMARK  190  A    between atoms: _445  and  _446
REMARK  191  A    between atoms: _449  and  _451
REMARK  192  A    between atoms: _451  and  _452
REMARK  193  A    between atoms: _451  and  _454
REMARK  194  A    between atoms: _454  and  _455
REMARK  195  A    between atoms: _458  and  _460
REMARK  196  A    between atoms: _460  and  _461
REMARK  197  A    between atoms: _463  and  _465
REMARK  198  A    between atoms: _465  and  _466
REMARK  199  A    between atoms: _465  and  _468
REMARK  200  A    between atoms: _468  and  _469
REMARK  201  A    between atoms: _472  and  _474
REMARK  202  A    between atoms: _474  and  _475
REMARK  203  A    between atoms: _474  and  _477
REMARK  204  A    between atoms: _477  and  _478
REMARK  205  A    between atoms: _481  and  _483
REMARK  206  A    between atoms: _483  and  _484
REMARK  207  A    between atoms: _483  and  _486
REMARK  208  A    between atoms: _486  and  _487
REMARK  209  A    between atoms: _490  and  _492
REMARK  210  A    between atoms: _492  and  _493
REMARK  211  A    between atoms: _492  and  _495
REMARK  212  A    between atoms: _495  and  _496
REMARK  213  A    between atoms: _499  and  _501
REMARK  214  A    between atoms: _501  and  _502
REMARK  215  A    between atoms: _501  and  _504
REMARK  216  A    between atoms: _504  and  _505
REMARK  217  A    between atoms: _510  and  _511
REMARK  218  A    between atoms: _513  and  _515
REMARK  219  A    between atoms: _515  and  _516
REMARK  220  A    between atoms: _515  and  _518
REMARK  221  A    between atoms: _521  and  _523
REMARK  222  A    between atoms: _523  and  _524
REMARK  223  A    between atoms: _526  and  _528
REMARK  224  A    between atoms: _528  and  _529
REMARK  225  A    between atoms: _528  and  _531
REMARK  226  A    between atoms: _531  and  _532
REMARK  227  A    between atoms: _538  and  _540
REMARK  228  A    between atoms: _540  and  _541
REMARK  229  A    between atoms: _543  and  _545
REMARK  230  A    between atoms: _545  and  _546
REMARK  231  A    between atoms: _545  and  _548
REMARK  232  A    between atoms: _548  and  _549
REMARK  233  A    between atoms: _555  and  _557
REMARK  234  A    between atoms: _557  and  _558
REMARK  235  A    between atoms: _560  and  _562
REMARK  236  A    between atoms: _562  and  _563
REMARK  237  A    between atoms: _565  and  _567
REMARK  238  A    between atoms: _567  and  _568
REMARK  239  A    between atoms: _567  and  _570
REMARK  240  A    between atoms: _570  and  _571
REMARK  241  A    between atoms: _571  and  _572
REMARK  242  A    between atoms: _577  and  _579
REMARK  243  A    between atoms: _579  and  _580
REMARK  244  A    between atoms: _579  and  _582
REMARK  245  A    between atoms: _582  and  _583
REMARK  246  A    between atoms: _585  and  _587
REMARK  247  A    between atoms: _587  and  _588
REMARK  248  A    between atoms: _587  and  _590
REMARK  249  A    between atoms: _590  and  _591
REMARK  250  A    between atoms: _593  and  _595
REMARK  251  A    between atoms: _595  and  _596
REMARK  252  A    between atoms: _598  and  _600
REMARK  253  A    between atoms: _600  and  _601
REMARK  254  A    between atoms: _600  and  _603
REMARK  255  A    between atoms: _603  and  _604
REMARK  256  A    between atoms: _607  and  _609
REMARK  257  A    between atoms: _609  and  _610
REMARK  258  A    between atoms: _612  and  _614
REMARK  259  A    between atoms: _614  and  _615
REMARK  260  A    between atoms: _614  and  _617
REMARK  261  A    between atoms: _617  and  _618
REMARK  262  A    between atoms: _621  and  _623
REMARK  263  A    between atoms: _623  and  _624
REMARK  264  A    between atoms: _623  and  _626
REMARK  265  A    between atoms: _626  and  _627
REMARK  266  A    between atoms: _632  and  _634
REMARK  267  A    between atoms: _634  and  _635
REMARK  268  A    between atoms: _634  and  _637
REMARK  269  A    between atoms: _637  and  _638
REMARK  270  A    between atoms: _641  and  _643
REMARK  271  A    between atoms: _643  and  _644
REMARK  272  A    between atoms: _643  and  _646
REMARK  273  A    between atoms: _646  and  _647
REMARK  274  A    between atoms: _653  and  _655
REMARK  275  A    between atoms: _655  and  _656
REMARK  276  A    between atoms: _658  and  _660
REMARK  277  A    between atoms: _660  and  _661
REMARK  278  A    between atoms: _660  and  _663
REMARK  279  A    between atoms: _663  and  _664
REMARK                            x       y       z     vdW  Elec       q    Type
REMARK                         _______ _______ _______ _____ _____    ______ ____
ROOT
ATOM      1  O   HOH     1       7.578  26.648  15.231  0.00  0.00    +0.000 OA
ENDROOT
TORSDOF 0
REMARK  Name = ../refined-set-2016/4er1/4er1_pocket.pdb
REMARK  279 active torsions:
REMARK  status: ('A' for Active; 'I' for Inactive)
REMARK    1  A    between atoms: _1  and  _3
REMARK    2  A    between atoms: _3  and  _4
REMARK    3  A    between atoms: _3  and  _6
REMARK    4  A    between atoms: _6  and  _7
REMARK    5  A    between atoms: _10  and  _12
REMARK    6  A    between atoms: _12  and  _13
REMARK    7  A    between atoms: _12  and  _15
REMARK    8  A    between atoms: _15  and  _16
REMARK    9  A    between atoms: _19  and  _21
REMARK   10  A    between atoms: _21  and  _22
REMARK   11  A    between atoms: _21  and  _24
REMARK   12  A    between atoms: _24  and  _25
REMARK   13  A    between atoms: _28  and  _30
REMARK   14  A    between atoms: _30  and  _31
REMARK   15  A    between atoms: _30  and  _33
REMARK   16  A    between atoms: _33  and  _34
REMARK   17  A    between atoms: _37  and  _39
REMARK   18  A    between atoms: _39  and  _40
REMARK   19  A    between atoms: _39  and  _42
REMARK   20  A    between atoms: _42  and  _43
REMARK   21  A    between atoms: _46  and  _48
REMARK   22  A    between atoms: _48  and  _49
REMARK   23  A    between atoms: _52  and  _54
REMARK   24  A    between atoms: _54  and  _55
REMARK   25  A    between atoms: _54  and  _57
REMARK   26  A    between atoms: _57  and  _58
REMARK   27  A    between atoms: _63  and  _64
REMARK   28  A    between atoms: _66  and  _68
REMARK   29  A    between atoms: _68  and  _69
REMARK   30  A    between atoms: _68  and  _71
REMARK   31  A    between atoms: _71  and  _72
REMARK   32  A    between atoms: _75  and  _77
REMARK   33  A    between atoms: _77  and  _78
REMARK   34  A    between atoms: _77  and  _80
REMARK   35  A    between atoms: _80  and  _81
REMARK   36  A    between atoms: _87  and  _89
REMARK   37  A    between atoms: _89  and  _90
REMARK   38  A    between atoms: _89  and  _92
REMARK   39  A    between atoms: _92  and  _93
REMARK   40  A    between atoms: _96  and  _98
REMARK   41  A    between atoms: _98  and  _99
REMARK   42  A    between atoms: _98  and  _101
REMARK   43  A    between atoms: _101  and  _102
REMARK   44  A    between atoms: _105  and  _107
REMARK   45  A    between atoms: _107  and  _108
REMARK   46  A    between atoms: _110  and  _112
REMARK   47  A    between atoms: _112  and  _113
REMARK   48  A    between atoms: _112  and  _115
REMARK   49  A    between atoms: _115  and  _116
REMARK   50  A    between atoms: _118  and  _120
REMARK   51  A    between atoms: _120  and  _121
REMARK   52  A    between atoms: _120  and  _123
REMARK   53  A    between atoms: _123  and  _124
REMARK   54  A    between atoms: _126  and  _128
REMARK   55  A    between atoms: _128  and  _129
REMARK   56  A    between atoms: _128  and  _131
REMARK   57  A    between atoms: _131  and  _132
REMARK   58  A    between atoms: _135  and  _137
REMARK   59  A    between atoms: _137  and  _138
REMARK   60  A    between atoms: _137  and  _140
REMARK   61  A    between atoms: _140  and  _141
REMARK   62  A    between atoms: _151  and  _153
REMARK   63  A    between atoms: _153  and  _154
REMARK   64  A    between atoms: _153  and  _156
REMARK   65  A    between atoms: _156  and  _157
REMARK   66  A    between atoms: _159  and  _161
REMARK   67  A    between atoms: _161  and  _162
REMARK   68  A    between atoms: _161  and  _164
REMARK   69  A    between atoms: _164  and  _165
REMARK   70  A    between atoms: _168  and  _170
REMARK   71  A    between atoms: _170  and  _171
REMARK   72  A    between atoms: _170  and  _173
REMARK   73  A    between atoms: _173  and  _174
REMARK   74  A    between atoms: _176  and  _178
REMARK   75  A    between atoms: _178  and  _179
REMARK   76  A    between atoms: _178  and  _181
REMARK   77  A    between atoms: _181  and  _182
REMARK   78  A    between atoms: _187  and  _188
REMARK   79  A    between atoms: _190  and  _192
REMARK   80  A    between atoms: _192  and  _193
REMARK   81  A    between atoms: _195  and  _197
REMARK   82  A    between atoms: _197  and  _198
REMARK   83  A    between atoms: _197  and  _200
REMARK   84  A    between atoms: _200  and  _201
REMARK   85  A    between atoms: _204  and  _206
REMARK   86  A    between atoms: _206  and  _207
REMARK   87  A    between atoms: _209  and  _211
REMARK   88  A    between atoms: _211  and  _212
REMARK   89  A    between atoms: _211  and  _214
REMARK   90  A    between atoms: _214  and  _215
REMARK   91  A    between atoms: _217  and  _219
REMARK   92  A    between atoms: _219  and  _220
REMARK   93  A    between atoms: _219  and  _222
REMARK   94  A    between atoms: _222  and  _223
REMARK   95  A    between atoms: _225  and  _227
REMARK   96  A    between atoms: _227  and  _228
REMARK   97  A    between atoms: _227  and  _230
REMARK   98  A    between atoms: _230  and  _231
REMARK   99  A    between atoms: _233  and  _235
REMARK  100  A    between atoms: _235  and  _236
REMARK  101  A    between atoms: _235  and  _238
REMARK  102  A    between atoms: _238  and  _239
REMARK  103  A    between atoms: _241  and  _243
REMARK  104  A    between atoms: _243  and  _244
REMARK  105  A    between atoms: _243  and  _246
REMARK  106  A    between atoms: _246  and  _247
REMARK  107  A    between atoms: _249  and  _251
REMARK  108  A    between atoms: _251  and  _252
REMARK  109  A    between atoms: _251  and  _254
REMARK  110  A    between atoms: _254  and  _255
REMARK  111  A    between atoms: _261  and  _263
REMARK  112  A    between atoms: _263  and  _264
REMARK  113  A    between atoms: _263  and  _266
REMARK  114  A    between atoms: _266  and  _267
REMARK  115  A    between atoms: _270  and  _272
REMARK  116  A    between atoms: _272  and  _273
REMARK  117  A    between atoms: _272  and  _275
REMARK  118  A    between atoms: _275  and  _276
REMARK  119  A    between atoms: _276  and  _277
REMARK  120  A    between atoms: _280  and  _282
REMARK  121  A    between atoms: _282  and  _283
REMARK  122  A    between atoms: _282  and  _285
REMARK  123  A    between atoms: _285  and  _286
REMARK  124  A    between atoms: _289  and  _291
REMARK  125  A    between atoms: _291  and  _292
REMARK  126  A    between atoms: _291  and  _294
REMARK  127  A    between atoms: _294  and  _295
REMARK  128  A    between atoms: _297  and  _299
REMARK  129  A    between atoms: _299  and  _300
REMARK  130  A    between atoms: _299  and  _302
REMARK  131  A    between atoms: _302  and  _303
REMARK  132  A    between atoms: _306  and  _308
REMARK  133  A    between atoms: _308  and  _309
REMARK  134  A    between atoms: _308  and  _311
REMARK  135  A    between atoms: _311  and  _312
REMARK  136  A    between atoms: _315  and  _317
REMARK  137  A    between atoms: _317  and  _318
REMARK  138  A    between atoms: _320  and  _322
REMARK  139  A    between atoms: _322  and  _323
REMARK  140  A    between atoms: _322  and  _325
REMARK  141  A    between atoms: _325  and  _326
REMARK  142  A    between atoms: _329  and  _331
REMARK  143  A    between atoms: _331  and  _332
REMARK  144  A    between atoms: _331  and  _334
REMARK  145  A    between atoms: _334  and  _335
REMARK  146  A    between atoms: _338  and  _340
REMARK  147  A    between atoms: _340  and  _341
REMARK  148  A    between atoms: _340  and  _343
REMARK  149  A    between atoms: _343  and  _344
REMARK  150  A    between atoms: _347  and  _349
REMARK  151  A    between atoms: _349  and  _350
REMARK  152  A    between atoms: _353  and  _355
REMARK  153  A    between atoms: _355  and  _356
REMARK  154  A    between atoms: _355  and  _358
REMARK  155  A    between atoms: _358  and  _359
REMARK  156  A    between atoms: _362  and  _364
REMARK  157  A    between atoms: _364  and  _365
REMARK  158  A    between atoms: _364  and  _367
REMARK  159  A    between atoms: _367  and  _368
REMARK  160  A    between atoms: _371  and  _373
REMARK  161  A    between atoms: _373  and  _374
REMARK  162  A    between atoms: _373  and  _376
REMARK  163  A    between atoms: _376  and  _377
REMARK  164  A    between atoms: _382  and  _384
REMARK  165  A    between atoms: _384  and  _385
REMARK  166  A    between atoms: _384  and  _387
REMARK  167  A    between atoms: _387  and  _388
REMARK  168  A    between atoms: _391  and  _393
REMARK  169  A    between atoms: _393  and  _394
REMARK  170  A    between atoms: _393  and  _396
REMARK  171  A    between atoms: _396  and  _397
REMARK  172  A    between atoms: _397  and  _398
REMARK  173  A    between atoms: _403  and  _405
REMARK  174  A    between atoms: _405  and  _406
REMARK  175  A    between atoms: _408  and  _410
REMARK  176  A    between atoms: _410  and  _411
REMARK  177  A    between atoms: _410  and  _413
REMARK  178  A    between atoms: _413  and  _414
REMARK  179  A    between atoms: _420  and  _422
REMARK  180  A    between atoms: _422  and  _423
REMARK  181  A    between atoms: _425  and  _427
REMARK  182  A    between atoms: _427  and  _428
REMARK  183  A    between atoms: _427  and  _430
REMARK  184  A    between atoms: _430  and  _431
REMARK  185  A    between atoms: _434  and  _436
REMARK  186  A    between atoms: _436  and  _437
REMARK  187  A    between atoms: _440  and  _442
REMARK  188  A    between atoms: _442  and  _443
REMARK  189  A    between atoms: _442  and  _445
REMARK  190  A    between atoms: _445  and  _446
REMARK  191  A    between atoms: _449  and  _451
REMARK  192  A    between atoms: _451  and  _452
REMARK  193  A    between atoms: _451  and  _454
REMARK  194  A    between atoms: _454  and  _455
REMARK  195  A    between atoms: _458  and  _460
REMARK  196  A    between atoms: _460  and  _461
REMARK  197  A    between atoms: _463  and  _465
REMARK  198  A    between atoms: _465  and  _466
REMARK  199  A    between atoms: _465  and  _468
REMARK  200  A    between atoms: _468  and  _469
REMARK  201  A    between atoms: _472  and  _474
REMARK  202  A    between atoms: _474  and  _475
REMARK  203  A    between atoms: _474  and  _477
REMARK  204  A    between atoms: _477  and  _478
REMARK  205  A    between atoms: _481  and  _483
REMARK  206  A    between atoms: _483  and  _484
REMARK  207  A    between atoms: _483  and  _486
REMARK  208  A    between atoms: _486  and  _487
REMARK  209  A    between atoms: _490  and  _492
REMARK  210  A    between atoms: _492  and  _493
REMARK  211  A    between atoms: _492  and  _495
REMARK  212  A    between atoms: _495  and  _496
REMARK  213  A    between atoms: _499  and  _501
REMARK  214  A    between atoms: _501  and  _502
REMARK  215  A    between atoms: _501  and  _504
REMARK  216  A    between atoms: _504  and  _505
REMARK  217  A    between atoms: _510  and  _511
REMARK  218  A    between atoms: _513  and  _515
REMARK  219  A    between atoms: _515  and  _516
REMARK  220  A    between atoms: _515  and  _518
REMARK  221  A    between atoms: _521  and  _523
REMARK  222  A    between atoms: _523  and  _524
REMARK  223  A    between atoms: _526  and  _528
REMARK  224  A    between atoms: _528  and  _529
REMARK  225  A    between atoms: _528  and  _531
REMARK  226  A    between atoms: _531  and  _532
REMARK  227  A    between atoms: _538  and  _540
REMARK  228  A    between atoms: _540  and  _541
REMARK  229  A    between atoms: _543  and  _545
REMARK  230  A    between atoms: _545  and  _546
REMARK  231  A    between atoms: _545  and  _548
REMARK  232  A    between atoms: _548  and  _549
REMARK  233  A    between atoms: _555  and  _557
REMARK  234  A    between atoms: _557  and  _558
REMARK  235  A    between atoms: _560  and  _562
REMARK  236  A    between atoms: _562  and  _563
REMARK  237  A    between atoms: _565  and  _567
REMARK  238  A    between atoms: _567  and  _568
REMARK  239  A    between atoms: _567  and  _570
REMARK  240  A    between atoms: _570  and  _571
REMARK  241  A    between atoms: _571  and  _572
REMARK  242  A    between atoms: _577  and  _579
REMARK  243  A    between atoms: _579  and  _580
REMARK  244  A    between atoms: _579  and  _582
REMARK  245  A    between atoms: _582  and  _583
REMARK  246  A    between atoms: _585  and  _587
REMARK  247  A    between atoms: _587  and  _588
REMARK  248  A    between atoms: _587  and  _590
REMARK  249  A    between atoms: _590  and  _591
REMARK  250  A    between atoms: _593  and  _595
REMARK  251  A    between atoms: _595  and  _596
REMARK  252  A    between atoms: _598  and  _600
REMARK  253  A    between atoms: _600  and  _601
REMARK  254  A    between atoms: _600  and  _603
REMARK  255  A    between atoms: _603  and  _604
REMARK  256  A    between atoms: _607  and  _609
REMARK  257  A    between atoms: _609  and  _610
REMARK  258  A    between atoms: _612  and  _614
REMARK  259  A    between atoms: _614  and  _615
REMARK  260  A    between atoms: _614  and  _617
REMARK  261  A    between atoms: _617  and  _618
REMARK  262  A    between atoms: _621  and  _623
REMARK  263  A    between atoms: _623  and  _624
REMARK  264  A    between atoms: _623  and  _626
REMARK  265  A    between atoms: _626  and  _627
REMARK  266  A    between atoms: _632  and  _634
REMARK  267  A    between atoms: _634  and  _635
REMARK  268  A    between atoms: _634  and  _637
REMARK  269  A    between atoms: _637  and  _638
REMARK  270  A    between atoms: _641  and  _643
REMARK  271  A    between atoms: _643  and  _644
REMARK  272  A    between atoms: _643  and  _646
REMARK  273  A    between atoms: _646  and  _647
REMARK  274  A    between atoms: _653  and  _655
REMARK  275  A    between atoms: _655  and  _656
REMARK  276  A    between atoms: _658  and  _660
REMARK  277  A    between atoms: _660  and  _661
REMARK  278  A    between atoms: _660  and  _663
REMARK  279  A    between atoms: _663  and  _664
REMARK                            x       y       z     vdW  Elec       q    Type
REMARK                         _______ _______ _______ _____ _____    ______ ____
ROOT
ATOM      1  O   HOH     1      10.521  38.345  13.590  0.00  0.00    +0.000 OA
ENDROOT
TORSDOF 0
REMARK  Name = ../refined-set-2016/4er1/4er1_pocket.pdb
REMARK  279 active torsions:
REMARK  status: ('A' for Active; 'I' for Inactive)
REMARK    1  A    between atoms: _1  and  _3
REMARK    2  A    between atoms: _3  and  _4
REMARK    3  A    between atoms: _3  and  _6
REMARK    4  A    between atoms: _6  and  _7
REMARK    5  A    between atoms: _10  and  _12
REMARK    6  A    between atoms: _12  and  _13
REMARK    7  A    between atoms: _12  and  _15
REMARK    8  A    between atoms: _15  and  _16
REMARK    9  A    between atoms: _19  and  _21
REMARK   10  A    between atoms: _21  and  _22
REMARK   11  A    between atoms: _21  and  _24
REMARK   12  A    between atoms: _24  and  _25
REMARK   13  A    between atoms: _28  and  _30
REMARK   14  A    between atoms: _30  and  _31
REMARK   15  A    between atoms: _30  and  _33
REMARK   16  A    between atoms: _33  and  _34
REMARK   17  A    between atoms: _37  and  _39
REMARK   18  A    between atoms: _39  and  _40
REMARK   19  A    between atoms: _39  and  _42
REMARK   20  A    between atoms: _42  and  _43
REMARK   21  A    between atoms: _46  and  _48
REMARK   22  A    between atoms: _48  and  _49
REMARK   23  A    between atoms: _52  and  _54
REMARK   24  A    between atoms: _54  and  _55
REMARK   25  A    between atoms: _54  and  _57
REMARK   26  A    between atoms: _57  and  _58
REMARK   27  A    between atoms: _63  and  _64
REMARK   28  A    between atoms: _66  and  _68
REMARK   29  A    between atoms: _68  and  _69
REMARK   30  A    between atoms: _68  and  _71
REMARK   31  A    between atoms: _71  and  _72
REMARK   32  A    between atoms: _75  and  _77
REMARK   33  A    between atoms: _77  and  _78
REMARK   34  A    between atoms: _77  and  _80
REMARK   35  A    between atoms: _80  and  _81
REMARK   36  A    between atoms: _87  and  _89
REMARK   37  A    between atoms: _89  and  _90
REMARK   38  A    between atoms: _89  and  _92
REMARK   39  A    between atoms: _92  and  _93
REMARK   40  A    between atoms: _96  and  _98
REMARK   41  A    between atoms: _98  and  _99
REMARK   42  A    between atoms: _98  and  _101
REMARK   43  A    between atoms: _101  and  _102
REMARK   44  A    between atoms: _105  and  _107
REMARK   45  A    between atoms: _107  and  _108
REMARK   46  A    between atoms: _110  and  _112
REMARK   47  A    between atoms: _112  and  _113
REMARK   48  A    between atoms: _112  and  _115
REMARK   49  A    between atoms: _115  and  _116
REMARK   50  A    between atoms: _118  and  _120
REMARK   51  A    between atoms: _120  and  _121
REMARK   52  A    between atoms: _120  and  _123
REMARK   53  A    between atoms: _123  and  _124
REMARK   54  A    between atoms: _126  and  _128
REMARK   55  A    between atoms: _128  and  _129
REMARK   56  A    between atoms: _128  and  _131
REMARK   57  A    between atoms: _131  and  _132
REMARK   58  A    between atoms: _135  and  _137
REMARK   59  A    between atoms: _137  and  _138
REMARK   60  A    between atoms: _137  and  _140
REMARK   61  A    between atoms: _140  and  _141
REMARK   62  A    between atoms: _151  and  _153
REMARK   63  A    between atoms: _153  and  _154
REMARK   64  A    between atoms: _153  and  _156
REMARK   65  A    between atoms: _156  and  _157
REMARK   66  A    between atoms: _159  and  _161
REMARK   67  A    between atoms: _161  and  _162
REMARK   68  A    between atoms: _161  and  _164
REMARK   69  A    between atoms: _164  and  _165
REMARK   70  A    between atoms: _168  and  _170
REMARK   71  A    between atoms: _170  and  _171
REMARK   72  A    between atoms: _170  and  _173
REMARK   73  A    between atoms: _173  and  _174
REMARK   74  A    between atoms: _176  and  _178
REMARK   75  A    between atoms: _178  and  _179
REMARK   76  A    between atoms: _178  and  _181
REMARK   77  A    between atoms: _181  and  _182
REMARK   78  A    between atoms: _187  and  _188
REMARK   79  A    between atoms: _190  and  _192
REMARK   80  A    between atoms: _192  and  _193
REMARK   81  A    between atoms: _195  and  _197
REMARK   82  A    between atoms: _197  and  _198
REMARK   83  A    between atoms: _197  and  _200
REMARK   84  A    between atoms: _200  and  _201
REMARK   85  A    between atoms: _204  and  _206
REMARK   86  A    between atoms: _206  and  _207
REMARK   87  A    between atoms: _209  and  _211
REMARK   88  A    between atoms: _211  and  _212
REMARK   89  A    between atoms: _211  and  _214
REMARK   90  A    between atoms: _214  and  _215
REMARK   91  A    between atoms: _217  and  _219
REMARK   92  A    between atoms: _219  and  _220
REMARK   93  A    between atoms: _219  and  _222
REMARK   94  A    between atoms: _222  and  _223
REMARK   95  A    between atoms: _225  and  _227
REMARK   96  A    between atoms: _227  and  _228
REMARK   97  A    between atoms: _227  and  _230
REMARK   98  A    between atoms: _230  and  _231
REMARK   99  A    between atoms: _233  and  _235
REMARK  100  A    between atoms: _235  and  _236
REMARK  101  A    between atoms: _235  and  _238
REMARK  102  A    between atoms: _238  and  _239
REMARK  103  A    between atoms: _241  and  _243
REMARK  104  A    between atoms: _243  and  _244
REMARK  105  A    between atoms: _243  and  _246
REMARK  106  A    between atoms: _246  and  _247
REMARK  107  A    between atoms: _249  and  _251
REMARK  108  A    between atoms: _251  and  _252
REMARK  109  A    between atoms: _251  and  _254
REMARK  110  A    between atoms: _254  and  _255
REMARK  111  A    between atoms: _261  and  _263
REMARK  112  A    between atoms: _263  and  _264
REMARK  113  A    between atoms: _263  and  _266
REMARK  114  A    between atoms: _266  and  _267
REMARK  115  A    between atoms: _270  and  _272
REMARK  116  A    between atoms: _272  and  _273
REMARK  117  A    between atoms: _272  and  _275
REMARK  118  A    between atoms: _275  and  _276
REMARK  119  A    between atoms: _276  and  _277
REMARK  120  A    between atoms: _280  and  _282
REMARK  121  A    between atoms: _282  and  _283
REMARK  122  A    between atoms: _282  and  _285
REMARK  123  A    between atoms: _285  and  _286
REMARK  124  A    between atoms: _289  and  _291
REMARK  125  A    between atoms: _291  and  _292
REMARK  126  A    between atoms: _291  and  _294
REMARK  127  A    between atoms: _294  and  _295
REMARK  128  A    between atoms: _297  and  _299
REMARK  129  A    between atoms: _299  and  _300
REMARK  130  A    between atoms: _299  and  _302
REMARK  131  A    between atoms: _302  and  _303
REMARK  132  A    between atoms: _306  and  _308
REMARK  133  A    between atoms: _308  and  _309
REMARK  134  A    between atoms: _308  and  _311
REMARK  135  A    between atoms: _311  and  _312
REMARK  136  A    between atoms: _315  and  _317
REMARK  137  A    between atoms: _317  and  _318
REMARK  138  A    between atoms: _320  and  _322
REMARK  139  A    between atoms: _322  and  _323
REMARK  140  A    between atoms: _322  and  _325
REMARK  141  A    between atoms: _325  and  _326
REMARK  142  A    between atoms: _329  and  _331
REMARK  143  A    between atoms: _331  and  _332
REMARK  144  A    between atoms: _331  and  _334
REMARK  145  A    between atoms: _334  and  _335
REMARK  146  A    between atoms: _338  and  _340
REMARK  147  A    between atoms: _340  and  _341
REMARK  148  A    between atoms: _340  and  _343
REMARK  149  A    between atoms: _343  and  _344
REMARK  150  A    between atoms: _347  and  _349
REMARK  151  A    between atoms: _349  and  _350
REMARK  152  A    between atoms: _353  and  _355
REMARK  153  A    between atoms: _355  and  _356
REMARK  154  A    between atoms: _355  and  _358
REMARK  155  A    between atoms: _358  and  _359
REMARK  156  A    between atoms: _362  and  _364
REMARK  157  A    between atoms: _364  and  _365
REMARK  158  A    between atoms: _364  and  _367
REMARK  159  A    between atoms: _367  and  _368
REMARK  160  A    between atoms: _371  and  _373
REMARK  161  A    between atoms: _373  and  _374
REMARK  162  A    between atoms: _373  and  _376
REMARK  163  A    between atoms: _376  and  _377
REMARK  164  A    between atoms: _382  and  _384
REMARK  165  A    between atoms: _384  and  _385
REMARK  166  A    between atoms: _384  and  _387
REMARK  167  A    between atoms: _387  and  _388
REMARK  168  A    between atoms: _391  and  _393
REMARK  169  A    between atoms: _393  and  _394
REMARK  170  A    between atoms: _393  and  _396
REMARK  171  A    between atoms: _396  and  _397
REMARK  172  A    between atoms: _397  and  _398
REMARK  173  A    between atoms: _403  and  _405
REMARK  174  A    between atoms: _405  and  _406
REMARK  175  A    between atoms: _408  and  _410
REMARK  176  A    between atoms: _410  and  _411
REMARK  177  A    between atoms: _410  and  _413
REMARK  178  A    between atoms: _413  and  _414
REMARK  179  A    between atoms: _420  and  _422
REMARK  180  A    between atoms: _422  and  _423
REMARK  181  A    between atoms: _425  and  _427
REMARK  182  A    between atoms: _427  and  _428
REMARK  183  A    between atoms: _427  and  _430
REMARK  184  A    between atoms: _430  and  _431
REMARK  185  A    between atoms: _434  and  _436
REMARK  186  A    between atoms: _436  and  _437
REMARK  187  A    between atoms: _440  and  _442
REMARK  188  A    between atoms: _442  and  _443
REMARK  189  A    between atoms: _442  and  _445
REMARK  190  A    between atoms: _445  and  _446
REMARK  191  A    between atoms: _449  and  _451
REMARK  192  A    between atoms: _451  and  _452
REMARK  193  A    between atoms: _451  and  _454
REMARK  194  A    between atoms: _454  and  _455
REMARK  195  A    between atoms: _458  and  _460
REMARK  196  A    between atoms: _460  and  _461
REMARK  197  A    between atoms: _463  and  _465
REMARK  198  A    between atoms: _465  and  _466
REMARK  199  A    between atoms: _465  and  _468
REMARK  200  A    between atoms: _468  and  _469
REMARK  201  A    between atoms: _472  and  _474
REMARK  202  A    between atoms: _474  and  _475
REMARK  203  A    between atoms: _474  and  _477
REMARK  204  A    between atoms: _477  and  _478
REMARK  205  A    between atoms: _481  and  _483
REMARK  206  A    between atoms: _483  and  _484
REMARK  207  A    between atoms: _483  and  _486
REMARK  208  A    between atoms: _486  and  _487
REMARK  209  A    between atoms: _490  and  _492
REMARK  210  A    between atoms: _492  and  _493
REMARK  211  A    between atoms: _492  and  _495
REMARK  212  A    between atoms: _495  and  _496
REMARK  213  A    between atoms: _499  and  _501
REMARK  214  A    between atoms: _501  and  _502
REMARK  215  A    between atoms: _501  and  _504
REMARK  216  A    between atoms: _504  and  _505
REMARK  217  A    between atoms: _510  and  _511
REMARK  218  A    between atoms: _513  and  _515
REMARK  219  A    between atoms: _515  and  _516
REMARK  220  A    between atoms: _515  and  _518
REMARK  221  A    between atoms: _521  and  _523
REMARK  222  A    between atoms: _523  and  _524
REMARK  223  A    between atoms: _526  and  _528
REMARK  224  A    between atoms: _528  and  _529
REMARK  225  A    between atoms: _528  and  _531
REMARK  226  A    between atoms: _531  and  _532
REMARK  227  A    between atoms: _538  and  _540
REMARK  228  A    between atoms: _540  and  _541
REMARK  229  A    between atoms: _543  and  _545
REMARK  230  A    between atoms: _545  and  _546
REMARK  231  A    between atoms: _545  and  _548
REMARK  232  A    between atoms: _548  and  _549
REMARK  233  A    between atoms: _555  and  _557
REMARK  234  A    between atoms: _557  and  _558
REMARK  235  A    between atoms: _560  and  _562
REMARK  236  A    between atoms: _562  and  _563
REMARK  237  A    between atoms: _565  and  _567
REMARK  238  A    between atoms: _567  and  _568
REMARK  239  A    between atoms: _567  and  _570
REMARK  240  A    between atoms: _570  and  _571
REMARK  241  A    between atoms: _571  and  _572
REMARK  242  A    between atoms: _577  and  _579
REMARK  243  A    between atoms: _579  and  _580
REMARK  244  A    between atoms: _579  and  _582
REMARK  245  A    between atoms: _582  and  _583
REMARK  246  A    between atoms: _585  and  _587
REMARK  247  A    between atoms: _587  and  _588
REMARK  248  A    between atoms: _587  and  _590
REMARK  249  A    between atoms: _590  and  _591
REMARK  250  A    between atoms: _593  and  _595
REMARK  251  A    between atoms: _595  and  _596
REMARK  252  A    between atoms: _598  and  _600
REMARK  253  A    between atoms: _600  and  _601
REMARK  254  A    between atoms: _600  and  _603
REMARK  255  A    between atoms: _603  and  _604
REMARK  256  A    between atoms: _607  and  _609
REMARK  257  A    between atoms: _609  and  _610
REMARK  258  A    between atoms: _612  and  _614
REMARK  259  A    between atoms: _614  and  _615
REMARK  260  A    between atoms: _614  and  _617
REMARK  261  A    between atoms: _617  and  _618
REMARK  262  A    between atoms: _621  and  _623
REMARK  263  A    between atoms: _623  and  _624
REMARK  264  A    between atoms: _623  and  _626
REMARK  265  A    between atoms: _626  and  _627
REMARK  266  A    between atoms: _632  and  _634
REMARK  267  A    between atoms: _634  and  _635
REMARK  268  A    between atoms: _634  and  _637
REMARK  269  A    between atoms: _637  and  _638
REMARK  270  A    between atoms: _641  and  _643
REMARK  271  A    between atoms: _643  and  _644
REMARK  272  A    between atoms: _643  and  _646
REMARK  273  A    between atoms: _646  and  _647
REMARK  274  A    between atoms: _653  and  _655
REMARK  275  A    between atoms: _655  and  _656
REMARK  276  A    between atoms: _658  and  _660
REMARK  277  A    between atoms: _660  and  _661
REMARK  278  A    between atoms: _660  and  _663
REMARK  279  A    between atoms: _663  and  _664
REMARK                            x       y       z     vdW  Elec       q    Type
REMARK                         _______ _______ _______ _____ _____    ______ ____
ROOT
ATOM      1  O   HOH     1       3.281  44.187  15.183  0.00  0.00    +0.000 OA
ENDROOT
TORSDOF 0
REMARK  Name = ../refined-set-2016/4er1/4er1_pocket.pdb
REMARK  279 active torsions:
REMARK  status: ('A' for Active; 'I' for Inactive)
REMARK    1  A    between atoms: _1  and  _3
REMARK    2  A    between atoms: _3  and  _4
REMARK    3  A    between atoms: _3  and  _6
REMARK    4  A    between atoms: _6  and  _7
REMARK    5  A    between atoms: _10  and  _12
REMARK    6  A    between atoms: _12  and  _13
REMARK    7  A    between atoms: _12  and  _15
REMARK    8  A    between atoms: _15  and  _16
REMARK    9  A    between atoms: _19  and  _21
REMARK   10  A    between atoms: _21  and  _22
REMARK   11  A    between atoms: _21  and  _24
REMARK   12  A    between atoms: _24  and  _25
REMARK   13  A    between atoms: _28  and  _30
REMARK   14  A    between atoms: _30  and  _31
REMARK   15  A    between atoms: _30  and  _33
REMARK   16  A    between atoms: _33  and  _34
REMARK   17  A    between atoms: _37  and  _39
REMARK   18  A    between atoms: _39  and  _40
REMARK   19  A    between atoms: _39  and  _42
REMARK   20  A    between atoms: _42  and  _43
REMARK   21  A    between atoms: _46  and  _48
REMARK   22  A    between atoms: _48  and  _49
REMARK   23  A    between atoms: _52  and  _54
REMARK   24  A    between atoms: _54  and  _55
REMARK   25  A    between atoms: _54  and  _57
REMARK   26  A    between atoms: _57  and  _58
REMARK   27  A    between atoms: _63  and  _64
REMARK   28  A    between atoms: _66  and  _68
REMARK   29  A    between atoms: _68  and  _69
REMARK   30  A    between atoms: _68  and  _71
REMARK   31  A    between atoms: _71  and  _72
REMARK   32  A    between atoms: _75  and  _77
REMARK   33  A    between atoms: _77  and  _78
REMARK   34  A    between atoms: _77  and  _80
REMARK   35  A    between atoms: _80  and  _81
REMARK   36  A    between atoms: _87  and  _89
REMARK   37  A    between atoms: _89  and  _90
REMARK   38  A    between atoms: _89  and  _92
REMARK   39  A    between atoms: _92  and  _93
REMARK   40  A    between atoms: _96  and  _98
REMARK   41  A    between atoms: _98  and  _99
REMARK   42  A    between atoms: _98  and  _101
REMARK   43  A    between atoms: _101  and  _102
REMARK   44  A    between atoms: _105  and  _107
REMARK   45  A    between atoms: _107  and  _108
REMARK   46  A    between atoms: _110  and  _112
REMARK   47  A    between atoms: _112  and  _113
REMARK   48  A    between atoms: _112  and  _115
REMARK   49  A    between atoms: _115  and  _116
REMARK   50  A    between atoms: _118  and  _120
REMARK   51  A    between atoms: _120  and  _121
REMARK   52  A    between atoms: _120  and  _123
REMARK   53  A    between atoms: _123  and  _124
REMARK   54  A    between atoms: _126  and  _128
REMARK   55  A    between atoms: _128  and  _129
REMARK   56  A    between atoms: _128  and  _131
REMARK   57  A    between atoms: _131  and  _132
REMARK   58  A    between atoms: _135  and  _137
REMARK   59  A    between atoms: _137  and  _138
REMARK   60  A    between atoms: _137  and  _140
REMARK   61  A    between atoms: _140  and  _141
REMARK   62  A    between atoms: _151  and  _153
REMARK   63  A    between atoms: _153  and  _154
REMARK   64  A    between atoms: _153  and  _156
REMARK   65  A    between atoms: _156  and  _157
REMARK   66  A    between atoms: _159  and  _161
REMARK   67  A    between atoms: _161  and  _162
REMARK   68  A    between atoms: _161  and  _164
REMARK   69  A    between atoms: _164  and  _165
REMARK   70  A    between atoms: _168  and  _170
REMARK   71  A    between atoms: _170  and  _171
REMARK   72  A    between atoms: _170  and  _173
REMARK   73  A    between atoms: _173  and  _174
REMARK   74  A    between atoms: _176  and  _178
REMARK   75  A    between atoms: _178  and  _179
REMARK   76  A    between atoms: _178  and  _181
REMARK   77  A    between atoms: _181  and  _182
REMARK   78  A    between atoms: _187  and  _188
REMARK   79  A    between atoms: _190  and  _192
REMARK   80  A    between atoms: _192  and  _193
REMARK   81  A    between atoms: _195  and  _197
REMARK   82  A    between atoms: _197  and  _198
REMARK   83  A    between atoms: _197  and  _200
REMARK   84  A    between atoms: _200  and  _201
REMARK   85  A    between atoms: _204  and  _206
REMARK   86  A    between atoms: _206  and  _207
REMARK   87  A    between atoms: _209  and  _211
REMARK   88  A    between atoms: _211  and  _212
REMARK   89  A    between atoms: _211  and  _214
REMARK   90  A    between atoms: _214  and  _215
REMARK   91  A    between atoms: _217  and  _219
REMARK   92  A    between atoms: _219  and  _220
REMARK   93  A    between atoms: _219  and  _222
REMARK   94  A    between atoms: _222  and  _223
REMARK   95  A    between atoms: _225  and  _227
REMARK   96  A    between atoms: _227  and  _228
REMARK   97  A    between atoms: _227  and  _230
REMARK   98  A    between atoms: _230  and  _231
REMARK   99  A    between atoms: _233  and  _235
REMARK  100  A    between atoms: _235  and  _236
REMARK  101  A    between atoms: _235  and  _238
REMARK  102  A    between atoms: _238  and  _239
REMARK  103  A    between atoms: _241  and  _243
REMARK  104  A    between atoms: _243  and  _244
REMARK  105  A    between atoms: _243  and  _246
REMARK  106  A    between atoms: _246  and  _247
REMARK  107  A    between atoms: _249  and  _251
REMARK  108  A    between atoms: _251  and  _252
REMARK  109  A    between atoms: _251  and  _254
REMARK  110  A    between atoms: _254  and  _255
REMARK  111  A    between atoms: _261  and  _263
REMARK  112  A    between atoms: _263  and  _264
REMARK  113  A    between atoms: _263  and  _266
REMARK  114  A    between atoms: _266  and  _267
REMARK  115  A    between atoms: _270  and  _272
REMARK  116  A    between atoms: _272  and  _273
REMARK  117  A    between atoms: _272  and  _275
REMARK  118  A    between atoms: _275  and  _276
REMARK  119  A    between atoms: _276  and  _277
REMARK  120  A    between atoms: _280  and  _282
REMARK  121  A    between atoms: _282  and  _283
REMARK  122  A    between atoms: _282  and  _285
REMARK  123  A    between atoms: _285  and  _286
REMARK  124  A    between atoms: _289  and  _291
REMARK  125  A    between atoms: _291  and  _292
REMARK  126  A    between atoms: _291  and  _294
REMARK  127  A    between atoms: _294  and  _295
REMARK  128  A    between atoms: _297  and  _299
REMARK  129  A    between atoms: _299  and  _300
REMARK  130  A    between atoms: _299  and  _302
REMARK  131  A    between atoms: _302  and  _303
REMARK  132  A    between atoms: _306  and  _308
REMARK  133  A    between atoms: _308  and  _309
REMARK  134  A    between atoms: _308  and  _311
REMARK  135  A    between atoms: _311  and  _312
REMARK  136  A    between atoms: _315  and  _317
REMARK  137  A    between atoms: _317  and  _318
REMARK  138  A    between atoms: _320  and  _322
REMARK  139  A    between atoms: _322  and  _323
REMARK  140  A    between atoms: _322  and  _325
REMARK  141  A    between atoms: _325  and  _326
REMARK  142  A    between atoms: _329  and  _331
REMARK  143  A    between atoms: _331  and  _332
REMARK  144  A    between atoms: _331  and  _334
REMARK  145  A    between atoms: _334  and  _335
REMARK  146  A    between atoms: _338  and  _340
REMARK  147  A    between atoms: _340  and  _341
REMARK  148  A    between atoms: _340  and  _343
REMARK  149  A    between atoms: _343  and  _344
REMARK  150  A    between atoms: _347  and  _349
REMARK  151  A    between atoms: _349  and  _350
REMARK  152  A    between atoms: _353  and  _355
REMARK  153  A    between atoms: _355  and  _356
REMARK  154  A    between atoms: _355  and  _358
REMARK  155  A    between atoms: _358  and  _359
REMARK  156  A    between atoms: _362  and  _364
REMARK  157  A    between atoms: _364  and  _365
REMARK  158  A    between atoms: _364  and  _367
REMARK  159  A    between atoms: _367  and  _368
REMARK  160  A    between atoms: _371  and  _373
REMARK  161  A    between atoms: _373  and  _374
REMARK  162  A    between atoms: _373  and  _376
REMARK  163  A    between atoms: _376  and  _377
REMARK  164  A    between atoms: _382  and  _384
REMARK  165  A    between atoms: _384  and  _385
REMARK  166  A    between atoms: _384  and  _387
REMARK  167  A    between atoms: _387  and  _388
REMARK  168  A    between atoms: _391  and  _393
REMARK  169  A    between atoms: _393  and  _394
REMARK  170  A    between atoms: _393  and  _396
REMARK  171  A    between atoms: _396  and  _397
REMARK  172  A    between atoms: _397  and  _398
REMARK  173  A    between atoms: _403  and  _405
REMARK  174  A    between atoms: _405  and  _406
REMARK  175  A    between atoms: _408  and  _410
REMARK  176  A    between atoms: _410  and  _411
REMARK  177  A    between atoms: _410  and  _413
REMARK  178  A    between atoms: _413  and  _414
REMARK  179  A    between atoms: _420  and  _422
REMARK  180  A    between atoms: _422  and  _423
REMARK  181  A    between atoms: _425  and  _427
REMARK  182  A    between atoms: _427  and  _428
REMARK  183  A    between atoms: _427  and  _430
REMARK  184  A    between atoms: _430  and  _431
REMARK  185  A    between atoms: _434  and  _436
REMARK  186  A    between atoms: _436  and  _437
REMARK  187  A    between atoms: _440  and  _442
REMARK  188  A    between atoms: _442  and  _443
REMARK  189  A    between atoms: _442  and  _445
REMARK  190  A    between atoms: _445  and  _446
REMARK  191  A    between atoms: _449  and  _451
REMARK  192  A    between atoms: _451  and  _452
REMARK  193  A    between atoms: _451  and  _454
REMARK  194  A    between atoms: _454  and  _455
REMARK  195  A    between atoms: _458  and  _460
REMARK  196  A    between atoms: _460  and  _461
REMARK  197  A    between atoms: _463  and  _465
REMARK  198  A    between atoms: _465  and  _466
REMARK  199  A    between atoms: _465  and  _468
REMARK  200  A    between atoms: _468  and  _469
REMARK  201  A    between atoms: _472  and  _474
REMARK  202  A    between atoms: _474  and  _475
REMARK  203  A    between atoms: _474  and  _477
REMARK  204  A    between atoms: _477  and  _478
REMARK  205  A    between atoms: _481  and  _483
REMARK  206  A    between atoms: _483  and  _484
REMARK  207  A    between atoms: _483  and  _486
REMARK  208  A    between atoms: _486  and  _487
REMARK  209  A    between atoms: _490  and  _492
REMARK  210  A    between atoms: _492  and  _493
REMARK  211  A    between atoms: _492  and  _495
REMARK  212  A    between atoms: _495  and  _496
REMARK  213  A    between atoms: _499  and  _501
REMARK  214  A    between atoms: _501  and  _502
REMARK  215  A    between atoms: _501  and  _504
REMARK  216  A    between atoms: _504  and  _505
REMARK  217  A    between atoms: _510  and  _511
REMARK  218  A    between atoms: _513  and  _515
REMARK  219  A    between atoms: _515  and  _516
REMARK  220  A    between atoms: _515  and  _518
REMARK  221  A    between atoms: _521  and  _523
REMARK  222  A    between atoms: _523  and  _524
REMARK  223  A    between atoms: _526  and  _528
REMARK  224  A    between atoms: _528  and  _529
REMARK  225  A    between atoms: _528  and  _531
REMARK  226  A    between atoms: _531  and  _532
REMARK  227  A    between atoms: _538  and  _540
REMARK  228  A    between atoms: _540  and  _541
REMARK  229  A    between atoms: _543  and  _545
REMARK  230  A    between atoms: _545  and  _546
REMARK  231  A    between atoms: _545  and  _548
REMARK  232  A    between atoms: _548  and  _549
REMARK  233  A    between atoms: _555  and  _557
REMARK  234  A    between atoms: _557  and  _558
REMARK  235  A    between atoms: _560  and  _562
REMARK  236  A    between atoms: _562  and  _563
REMARK  237  A    between atoms: _565  and  _567
REMARK  238  A    between atoms: _567  and  _568
REMARK  239  A    between atoms: _567  and  _570
REMARK  240  A    between atoms: _570  and  _571
REMARK  241  A    between atoms: _571  and  _572
REMARK  242  A    between atoms: _577  and  _579
REMARK  243  A    between atoms: _579  and  _580
REMARK  244  A    between atoms: _579  and  _582
REMARK  245  A    between atoms: _582  and  _583
REMARK  246  A    between atoms: _585  and  _587
REMARK  247  A    between atoms: _587  and  _588
REMARK  248  A    between atoms: _587  and  _590
REMARK  249  A    between atoms: _590  and  _591
REMARK  250  A    between atoms: _593  and  _595
REMARK  251  A    between atoms: _595  and  _596
REMARK  252  A    between atoms: _598  and  _600
REMARK  253  A    between atoms: _600  and  _601
REMARK  254  A    between atoms: _600  and  _603
REMARK  255  A    between atoms: _603  and  _604
REMARK  256  A    between atoms: _607  and  _609
REMARK  257  A    between atoms: _609  and  _610
REMARK  258  A    between atoms: _612  and  _614
REMARK  259  A    between atoms: _614  and  _615
REMARK  260  A    between atoms: _614  and  _617
REMARK  261  A    between atoms: _617  and  _618
REMARK  262  A    between atoms: _621  and  _623
REMARK  263  A    between atoms: _623  and  _624
REMARK  264  A    between atoms: _623  and  _626
REMARK  265  A    between atoms: _626  and  _627
REMARK  266  A    between atoms: _632  and  _634
REMARK  267  A    between atoms: _634  and  _635
REMARK  268  A    between atoms: _634  and  _637
REMARK  269  A    between atoms: _637  and  _638
REMARK  270  A    between atoms: _641  and  _643
REMARK  271  A    between atoms: _643  and  _644
REMARK  272  A    between atoms: _643  and  _646
REMARK  273  A    between atoms: _646  and  _647
REMARK  274  A    between atoms: _653  and  _655
REMARK  275  A    between atoms: _655  and  _656
REMARK  276  A    between atoms: _658  and  _660
REMARK  277  A    between atoms: _660  and  _661
REMARK  278  A    between atoms: _660  and  _663
REMARK  279  A    between atoms: _663  and  _664
REMARK                            x       y       z     vdW  Elec       q    Type
REMARK                         _______ _______ _______ _____ _____    ______ ____
ROOT
ATOM      1  O   HOH     1       7.847  41.496  10.856  0.00  0.00    +0.000 OA
ENDROOT
TORSDOF 0
REMARK  Name = ../refined-set-2016/4er1/4er1_pocket.pdb
REMARK  279 active torsions:
REMARK  status: ('A' for Active; 'I' for Inactive)
REMARK    1  A    between atoms: _1  and  _3
REMARK    2  A    between atoms: _3  and  _4
REMARK    3  A    between atoms: _3  and  _6
REMARK    4  A    between atoms: _6  and  _7
REMARK    5  A    between atoms: _10  and  _12
REMARK    6  A    between atoms: _12  and  _13
REMARK    7  A    between atoms: _12  and  _15
REMARK    8  A    between atoms: _15  and  _16
REMARK    9  A    between atoms: _19  and  _21
REMARK   10  A    between atoms: _21  and  _22
REMARK   11  A    between atoms: _21  and  _24
REMARK   12  A    between atoms: _24  and  _25
REMARK   13  A    between atoms: _28  and  _30
REMARK   14  A    between atoms: _30  and  _31
REMARK   15  A    between atoms: _30  and  _33
REMARK   16  A    between atoms: _33  and  _34
REMARK   17  A    between atoms: _37  and  _39
REMARK   18  A    between atoms: _39  and  _40
REMARK   19  A    between atoms: _39  and  _42
REMARK   20  A    between atoms: _42  and  _43
REMARK   21  A    between atoms: _46  and  _48
REMARK   22  A    between atoms: _48  and  _49
REMARK   23  A    between atoms: _52  and  _54
REMARK   24  A    between atoms: _54  and  _55
REMARK   25  A    between atoms: _54  and  _57
REMARK   26  A    between atoms: _57  and  _58
REMARK   27  A    between atoms: _63  and  _64
REMARK   28  A    between atoms: _66  and  _68
REMARK   29  A    between atoms: _68  and  _69
REMARK   30  A    between atoms: _68  and  _71
REMARK   31  A    between atoms: _71  and  _72
REMARK   32  A    between atoms: _75  and  _77
REMARK   33  A    between atoms: _77  and  _78
REMARK   34  A    between atoms: _77  and  _80
REMARK   35  A    between atoms: _80  and  _81
REMARK   36  A    between atoms: _87  and  _89
REMARK   37  A    between atoms: _89  and  _90
REMARK   38  A    between atoms: _89  and  _92
REMARK   39  A    between atoms: _92  and  _93
REMARK   40  A    between atoms: _96  and  _98
REMARK   41  A    between atoms: _98  and  _99
REMARK   42  A    between atoms: _98  and  _101
REMARK   43  A    between atoms: _101  and  _102
REMARK   44  A    between atoms: _105  and  _107
REMARK   45  A    between atoms: _107  and  _108
REMARK   46  A    between atoms: _110  and  _112
REMARK   47  A    between atoms: _112  and  _113
REMARK   48  A    between atoms: _112  and  _115
REMARK   49  A    between atoms: _115  and  _116
REMARK   50  A    between atoms: _118  and  _120
REMARK   51  A    between atoms: _120  and  _121
REMARK   52  A    between atoms: _120  and  _123
REMARK   53  A    between atoms: _123  and  _124
REMARK   54  A    between atoms: _126  and  _128
REMARK   55  A    between atoms: _128  and  _129
REMARK   56  A    between atoms: _128  and  _131
REMARK   57  A    between atoms: _131  and  _132
REMARK   58  A    between atoms: _135  and  _137
REMARK   59  A    between atoms: _137  and  _138
REMARK   60  A    between atoms: _137  and  _140
REMARK   61  A    between atoms: _140  and  _141
REMARK   62  A    between atoms: _151  and  _153
REMARK   63  A    between atoms: _153  and  _154
REMARK   64  A    between atoms: _153  and  _156
REMARK   65  A    between atoms: _156  and  _157
REMARK   66  A    between atoms: _159  and  _161
REMARK   67  A    between atoms: _161  and  _162
REMARK   68  A    between atoms: _161  and  _164
REMARK   69  A    between atoms: _164  and  _165
REMARK   70  A    between atoms: _168  and  _170
REMARK   71  A    between atoms: _170  and  _171
REMARK   72  A    between atoms: _170  and  _173
REMARK   73  A    between atoms: _173  and  _174
REMARK   74  A    between atoms: _176  and  _178
REMARK   75  A    between atoms: _178  and  _179
REMARK   76  A    between atoms: _178  and  _181
REMARK   77  A    between atoms: _181  and  _182
REMARK   78  A    between atoms: _187  and  _188
REMARK   79  A    between atoms: _190  and  _192
REMARK   80  A    between atoms: _192  and  _193
REMARK   81  A    between atoms: _195  and  _197
REMARK   82  A    between atoms: _197  and  _198
REMARK   83  A    between atoms: _197  and  _200
REMARK   84  A    between atoms: _200  and  _201
REMARK   85  A    between atoms: _204  and  _206
REMARK   86  A    between atoms: _206  and  _207
REMARK   87  A    between atoms: _209  and  _211
REMARK   88  A    between atoms: _211  and  _212
REMARK   89  A    between atoms: _211  and  _214
REMARK   90  A    between atoms: _214  and  _215
REMARK   91  A    between atoms: _217  and  _219
REMARK   92  A    between atoms: _219  and  _220
REMARK   93  A    between atoms: _219  and  _222
REMARK   94  A    between atoms: _222  and  _223
REMARK   95  A    between atoms: _225  and  _227
REMARK   96  A    between atoms: _227  and  _228
REMARK   97  A    between atoms: _227  and  _230
REMARK   98  A    between atoms: _230  and  _231
REMARK   99  A    between atoms: _233  and  _235
REMARK  100  A    between atoms: _235  and  _236
REMARK  101  A    between atoms: _235  and  _238
REMARK  102  A    between atoms: _238  and  _239
REMARK  103  A    between atoms: _241  and  _243
REMARK  104  A    between atoms: _243  and  _244
REMARK  105  A    between atoms: _243  and  _246
REMARK  106  A    between atoms: _246  and  _247
REMARK  107  A    between atoms: _249  and  _251
REMARK  108  A    between atoms: _251  and  _252
REMARK  109  A    between atoms: _251  and  _254
REMARK  110  A    between atoms: _254  and  _255
REMARK  111  A    between atoms: _261  and  _263
REMARK  112  A    between atoms: _263  and  _264
REMARK  113  A    between atoms: _263  and  _266
REMARK  114  A    between atoms: _266  and  _267
REMARK  115  A    between atoms: _270  and  _272
REMARK  116  A    between atoms: _272  and  _273
REMARK  117  A    between atoms: _272  and  _275
REMARK  118  A    between atoms: _275  and  _276
REMARK  119  A    between atoms: _276  and  _277
REMARK  120  A    between atoms: _280  and  _282
REMARK  121  A    between atoms: _282  and  _283
REMARK  122  A    between atoms: _282  and  _285
REMARK  123  A    between atoms: _285  and  _286
REMARK  124  A    between atoms: _289  and  _291
REMARK  125  A    between atoms: _291  and  _292
REMARK  126  A    between atoms: _291  and  _294
REMARK  127  A    between atoms: _294  and  _295
REMARK  128  A    between atoms: _297  and  _299
REMARK  129  A    between atoms: _299  and  _300
REMARK  130  A    between atoms: _299  and  _302
REMARK  131  A    between atoms: _302  and  _303
REMARK  132  A    between atoms: _306  and  _308
REMARK  133  A    between atoms: _308  and  _309
REMARK  134  A    between atoms: _308  and  _311
REMARK  135  A    between atoms: _311  and  _312
REMARK  136  A    between atoms: _315  and  _317
REMARK  137  A    between atoms: _317  and  _318
REMARK  138  A    between atoms: _320  and  _322
REMARK  139  A    between atoms: _322  and  _323
REMARK  140  A    between atoms: _322  and  _325
REMARK  141  A    between atoms: _325  and  _326
REMARK  142  A    between atoms: _329  and  _331
REMARK  143  A    between atoms: _331  and  _332
REMARK  144  A    between atoms: _331  and  _334
REMARK  145  A    between atoms: _334  and  _335
REMARK  146  A    between atoms: _338  and  _340
REMARK  147  A    between atoms: _340  and  _341
REMARK  148  A    between atoms: _340  and  _343
REMARK  149  A    between atoms: _343  and  _344
REMARK  150  A    between atoms: _347  and  _349
REMARK  151  A    between atoms: _349  and  _350
REMARK  152  A    between atoms: _353  and  _355
REMARK  153  A    between atoms: _355  and  _356
REMARK  154  A    between atoms: _355  and  _358
REMARK  155  A    between atoms: _358  and  _359
REMARK  156  A    between atoms: _362  and  _364
REMARK  157  A    between atoms: _364  and  _365
REMARK  158  A    between atoms: _364  and  _367
REMARK  159  A    between atoms: _367  and  _368
REMARK  160  A    between atoms: _371  and  _373
REMARK  161  A    between atoms: _373  and  _374
REMARK  162  A    between atoms: _373  and  _376
REMARK  163  A    between atoms: _376  and  _377
REMARK  164  A    between atoms: _382  and  _384
REMARK  165  A    between atoms: _384  and  _385
REMARK  166  A    between atoms: _384  and  _387
REMARK  167  A    between atoms: _387  and  _388
REMARK  168  A    between atoms: _391  and  _393
REMARK  169  A    between atoms: _393  and  _394
REMARK  170  A    between atoms: _393  and  _396
REMARK  171  A    between atoms: _396  and  _397
REMARK  172  A    between atoms: _397  and  _398
REMARK  173  A    between atoms: _403  and  _405
REMARK  174  A    between atoms: _405  and  _406
REMARK  175  A    between atoms: _408  and  _410
REMARK  176  A    between atoms: _410  and  _411
REMARK  177  A    between atoms: _410  and  _413
REMARK  178  A    between atoms: _413  and  _414
REMARK  179  A    between atoms: _420  and  _422
REMARK  180  A    between atoms: _422  and  _423
REMARK  181  A    between atoms: _425  and  _427
REMARK  182  A    between atoms: _427  and  _428
REMARK  183  A    between atoms: _427  and  _430
REMARK  184  A    between atoms: _430  and  _431
REMARK  185  A    between atoms: _434  and  _436
REMARK  186  A    between atoms: _436  and  _437
REMARK  187  A    between atoms: _440  and  _442
REMARK  188  A    between atoms: _442  and  _443
REMARK  189  A    between atoms: _442  and  _445
REMARK  190  A    between atoms: _445  and  _446
REMARK  191  A    between atoms: _449  and  _451
REMARK  192  A    between atoms: _451  and  _452
REMARK  193  A    between atoms: _451  and  _454
REMARK  194  A    between atoms: _454  and  _455
REMARK  195  A    between atoms: _458  and  _460
REMARK  196  A    between atoms: _460  and  _461
REMARK  197  A    between atoms: _463  and  _465
REMARK  198  A    between atoms: _465  and  _466
REMARK  199  A    between atoms: _465  and  _468
REMARK  200  A    between atoms: _468  and  _469
REMARK  201  A    between atoms: _472  and  _474
REMARK  202  A    between atoms: _474  and  _475
REMARK  203  A    between atoms: _474  and  _477
REMARK  204  A    between atoms: _477  and  _478
REMARK  205  A    between atoms: _481  and  _483
REMARK  206  A    between atoms: _483  and  _484
REMARK  207  A    between atoms: _483  and  _486
REMARK  208  A    between atoms: _486  and  _487
REMARK  209  A    between atoms: _490  and  _492
REMARK  210  A    between atoms: _492  and  _493
REMARK  211  A    between atoms: _492  and  _495
REMARK  212  A    between atoms: _495  and  _496
REMARK  213  A    between atoms: _499  and  _501
REMARK  214  A    between atoms: _501  and  _502
REMARK  215  A    between atoms: _501  and  _504
REMARK  216  A    between atoms: _504  and  _505
REMARK  217  A    between atoms: _510  and  _511
REMARK  218  A    between atoms: _513  and  _515
REMARK  219  A    between atoms: _515  and  _516
REMARK  220  A    between atoms: _515  and  _518
REMARK  221  A    between atoms: _521  and  _523
REMARK  222  A    between atoms: _523  and  _524
REMARK  223  A    between atoms: _526  and  _528
REMARK  224  A    between atoms: _528  and  _529
REMARK  225  A    between atoms: _528  and  _531
REMARK  226  A    between atoms: _531  and  _532
REMARK  227  A    between atoms: _538  and  _540
REMARK  228  A    between atoms: _540  and  _541
REMARK  229  A    between atoms: _543  and  _545
REMARK  230  A    between atoms: _545  and  _546
REMARK  231  A    between atoms: _545  and  _548
REMARK  232  A    between atoms: _548  and  _549
REMARK  233  A    between atoms: _555  and  _557
REMARK  234  A    between atoms: _557  and  _558
REMARK  235  A    between atoms: _560  and  _562
REMARK  236  A    between atoms: _562  and  _563
REMARK  237  A    between atoms: _565  and  _567
REMARK  238  A    between atoms: _567  and  _568
REMARK  239  A    between atoms: _567  and  _570
REMARK  240  A    between atoms: _570  and  _571
REMARK  241  A    between atoms: _571  and  _572
REMARK  242  A    between atoms: _577  and  _579
REMARK  243  A    between atoms: _579  and  _580
REMARK  244  A    between atoms: _579  and  _582
REMARK  245  A    between atoms: _582  and  _583
REMARK  246  A    between atoms: _585  and  _587
REMARK  247  A    between atoms: _587  and  _588
REMARK  248  A    between atoms: _587  and  _590
REMARK  249  A    between atoms: _590  and  _591
REMARK  250  A    between atoms: _593  and  _595
REMARK  251  A    between atoms: _595  and  _596
REMARK  252  A    between atoms: _598  and  _600
REMARK  253  A    between atoms: _600  and  _601
REMARK  254  A    between atoms: _600  and  _603
REMARK  255  A    between atoms: _603  and  _604
REMARK  256  A    between atoms: _607  and  _609
REMARK  257  A    between atoms: _609  and  _610
REMARK  258  A    between atoms: _612  and  _614
REMARK  259  A    between atoms: _614  and  _615
REMARK  260  A    between atoms: _614  and  _617
REMARK  261  A    between atoms: _617  and  _618
REMARK  262  A    between atoms: _621  and  _623
REMARK  263  A    between atoms: _623  and  _624
REMARK  264  A    between atoms: _623  and  _626
REMARK  265  A    between atoms: _626  and  _627
REMARK  266  A    between atoms: _632  and  _634
REMARK  267  A    between atoms: _634  and  _635
REMARK  268  A    between atoms: _634  and  _637
REMARK  269  A    between atoms: _637  and  _638
REMARK  270  A    between atoms: _641  and  _643
REMARK  271  A    between atoms: _643  and  _644
REMARK  272  A    between atoms: _643  and  _646
REMARK  273  A    between atoms: _646  and  _647
REMARK  274  A    between atoms: _653  and  _655
REMARK  275  A    between atoms: _655  and  _656
REMARK  276  A    between atoms: _658  and  _660
REMARK  277  A    between atoms: _660  and  _661
REMARK  278  A    between atoms: _660  and  _663
REMARK  279  A    between atoms: _663  and  _664
REMARK                            x       y       z     vdW  Elec       q    Type
REMARK                         _______ _______ _______ _____ _____    ______ ____
ROOT
ATOM      1  O   HOH     1      12.788  27.480  11.553  0.00  0.00    +0.000 OA
ENDROOT
TORSDOF 0
REMARK  Name = ../refined-set-2016/4er1/4er1_pocket.pdb
REMARK  279 active torsions:
REMARK  status: ('A' for Active; 'I' for Inactive)
REMARK    1  A    between atoms: _1  and  _3
REMARK    2  A    between atoms: _3  and  _4
REMARK    3  A    between atoms: _3  and  _6
REMARK    4  A    between atoms: _6  and  _7
REMARK    5  A    between atoms: _10  and  _12
REMARK    6  A    between atoms: _12  and  _13
REMARK    7  A    between atoms: _12  and  _15
REMARK    8  A    between atoms: _15  and  _16
REMARK    9  A    between atoms: _19  and  _21
REMARK   10  A    between atoms: _21  and  _22
REMARK   11  A    between atoms: _21  and  _24
REMARK   12  A    between atoms: _24  and  _25
REMARK   13  A    between atoms: _28  and  _30
REMARK   14  A    between atoms: _30  and  _31
REMARK   15  A    between atoms: _30  and  _33
REMARK   16  A    between atoms: _33  and  _34
REMARK   17  A    between atoms: _37  and  _39
REMARK   18  A    between atoms: _39  and  _40
REMARK   19  A    between atoms: _39  and  _42
REMARK   20  A    between atoms: _42  and  _43
REMARK   21  A    between atoms: _46  and  _48
REMARK   22  A    between atoms: _48  and  _49
REMARK   23  A    between atoms: _52  and  _54
REMARK   24  A    between atoms: _54  and  _55
REMARK   25  A    between atoms: _54  and  _57
REMARK   26  A    between atoms: _57  and  _58
REMARK   27  A    between atoms: _63  and  _64
REMARK   28  A    between atoms: _66  and  _68
REMARK   29  A    between atoms: _68  and  _69
REMARK   30  A    between atoms: _68  and  _71
REMARK   31  A    between atoms: _71  and  _72
REMARK   32  A    between atoms: _75  and  _77
REMARK   33  A    between atoms: _77  and  _78
REMARK   34  A    between atoms: _77  and  _80
REMARK   35  A    between atoms: _80  and  _81
REMARK   36  A    between atoms: _87  and  _89
REMARK   37  A    between atoms: _89  and  _90
REMARK   38  A    between atoms: _89  and  _92
REMARK   39  A    between atoms: _92  and  _93
REMARK   40  A    between atoms: _96  and  _98
REMARK   41  A    between atoms: _98  and  _99
REMARK   42  A    between atoms: _98  and  _101
REMARK   43  A    between atoms: _101  and  _102
REMARK   44  A    between atoms: _105  and  _107
REMARK   45  A    between atoms: _107  and  _108
REMARK   46  A    between atoms: _110  and  _112
REMARK   47  A    between atoms: _112  and  _113
REMARK   48  A    between atoms: _112  and  _115
REMARK   49  A    between atoms: _115  and  _116
REMARK   50  A    between atoms: _118  and  _120
REMARK   51  A    between atoms: _120  and  _121
REMARK   52  A    between atoms: _120  and  _123
REMARK   53  A    between atoms: _123  and  _124
REMARK   54  A    between atoms: _126  and  _128
REMARK   55  A    between atoms: _128  and  _129
REMARK   56  A    between atoms: _128  and  _131
REMARK   57  A    between atoms: _131  and  _132
REMARK   58  A    between atoms: _135  and  _137
REMARK   59  A    between atoms: _137  and  _138
REMARK   60  A    between atoms: _137  and  _140
REMARK   61  A    between atoms: _140  and  _141
REMARK   62  A    between atoms: _151  and  _153
REMARK   63  A    between atoms: _153  and  _154
REMARK   64  A    between atoms: _153  and  _156
REMARK   65  A    between atoms: _156  and  _157
REMARK   66  A    between atoms: _159  and  _161
REMARK   67  A    between atoms: _161  and  _162
REMARK   68  A    between atoms: _161  and  _164
REMARK   69  A    between atoms: _164  and  _165
REMARK   70  A    between atoms: _168  and  _170
REMARK   71  A    between atoms: _170  and  _171
REMARK   72  A    between atoms: _170  and  _173
REMARK   73  A    between atoms: _173  and  _174
REMARK   74  A    between atoms: _176  and  _178
REMARK   75  A    between atoms: _178  and  _179
REMARK   76  A    between atoms: _178  and  _181
REMARK   77  A    between atoms: _181  and  _182
REMARK   78  A    between atoms: _187  and  _188
REMARK   79  A    between atoms: _190  and  _192
REMARK   80  A    between atoms: _192  and  _193
REMARK   81  A    between atoms: _195  and  _197
REMARK   82  A    between atoms: _197  and  _198
REMARK   83  A    between atoms: _197  and  _200
REMARK   84  A    between atoms: _200  and  _201
REMARK   85  A    between atoms: _204  and  _206
REMARK   86  A    between atoms: _206  and  _207
REMARK   87  A    between atoms: _209  and  _211
REMARK   88  A    between atoms: _211  and  _212
REMARK   89  A    between atoms: _211  and  _214
REMARK   90  A    between atoms: _214  and  _215
REMARK   91  A    between atoms: _217  and  _219
REMARK   92  A    between atoms: _219  and  _220
REMARK   93  A    between atoms: _219  and  _222
REMARK   94  A    between atoms: _222  and  _223
REMARK   95  A    between atoms: _225  and  _227
REMARK   96  A    between atoms: _227  and  _228
REMARK   97  A    between atoms: _227  and  _230
REMARK   98  A    between atoms: _230  and  _231
REMARK   99  A    between atoms: _233  and  _235
REMARK  100  A    between atoms: _235  and  _236
REMARK  101  A    between atoms: _235  and  _238
REMARK  102  A    between atoms: _238  and  _239
REMARK  103  A    between atoms: _241  and  _243
REMARK  104  A    between atoms: _243  and  _244
REMARK  105  A    between atoms: _243  and  _246
REMARK  106  A    between atoms: _246  and  _247
REMARK  107  A    between atoms: _249  and  _251
REMARK  108  A    between atoms: _251  and  _252
REMARK  109  A    between atoms: _251  and  _254
REMARK  110  A    between atoms: _254  and  _255
REMARK  111  A    between atoms: _261  and  _263
REMARK  112  A    between atoms: _263  and  _264
REMARK  113  A    between atoms: _263  and  _266
REMARK  114  A    between atoms: _266  and  _267
REMARK  115  A    between atoms: _270  and  _272
REMARK  116  A    between atoms: _272  and  _273
REMARK  117  A    between atoms: _272  and  _275
REMARK  118  A    between atoms: _275  and  _276
REMARK  119  A    between atoms: _276  and  _277
REMARK  120  A    between atoms: _280  and  _282
REMARK  121  A    between atoms: _282  and  _283
REMARK  122  A    between atoms: _282  and  _285
REMARK  123  A    between atoms: _285  and  _286
REMARK  124  A    between atoms: _289  and  _291
REMARK  125  A    between atoms: _291  and  _292
REMARK  126  A    between atoms: _291  and  _294
REMARK  127  A    between atoms: _294  and  _295
REMARK  128  A    between atoms: _297  and  _299
REMARK  129  A    between atoms: _299  and  _300
REMARK  130  A    between atoms: _299  and  _302
REMARK  131  A    between atoms: _302  and  _303
REMARK  132  A    between atoms: _306  and  _308
REMARK  133  A    between atoms: _308  and  _309
REMARK  134  A    between atoms: _308  and  _311
REMARK  135  A    between atoms: _311  and  _312
REMARK  136  A    between atoms: _315  and  _317
REMARK  137  A    between atoms: _317  and  _318
REMARK  138  A    between atoms: _320  and  _322
REMARK  139  A    between atoms: _322  and  _323
REMARK  140  A    between atoms: _322  and  _325
REMARK  141  A    between atoms: _325  and  _326
REMARK  142  A    between atoms: _329  and  _331
REMARK  143  A    between atoms: _331  and  _332
REMARK  144  A    between atoms: _331  and  _334
REMARK  145  A    between atoms: _334  and  _335
REMARK  146  A    between atoms: _338  and  _340
REMARK  147  A    between atoms: _340  and  _341
REMARK  148  A    between atoms: _340  and  _343
REMARK  149  A    between atoms: _343  and  _344
REMARK  150  A    between atoms: _347  and  _349
REMARK  151  A    between atoms: _349  and  _350
REMARK  152  A    between atoms: _353  and  _355
REMARK  153  A    between atoms: _355  and  _356
REMARK  154  A    between atoms: _355  and  _358
REMARK  155  A    between atoms: _358  and  _359
REMARK  156  A    between atoms: _362  and  _364
REMARK  157  A    between atoms: _364  and  _365
REMARK  158  A    between atoms: _364  and  _367
REMARK  159  A    between atoms: _367  and  _368
REMARK  160  A    between atoms: _371  and  _373
REMARK  161  A    between atoms: _373  and  _374
REMARK  162  A    between atoms: _373  and  _376
REMARK  163  A    between atoms: _376  and  _377
REMARK  164  A    between atoms: _382  and  _384
REMARK  165  A    between atoms: _384  and  _385
REMARK  166  A    between atoms: _384  and  _387
REMARK  167  A    between atoms: _387  and  _388
REMARK  168  A    between atoms: _391  and  _393
REMARK  169  A    between atoms: _393  and  _394
REMARK  170  A    between atoms: _393  and  _396
REMARK  171  A    between atoms: _396  and  _397
REMARK  172  A    between atoms: _397  and  _398
REMARK  173  A    between atoms: _403  and  _405
REMARK  174  A    between atoms: _405  and  _406
REMARK  175  A    between atoms: _408  and  _410
REMARK  176  A    between atoms: _410  and  _411
REMARK  177  A    between atoms: _410  and  _413
REMARK  178  A    between atoms: _413  and  _414
REMARK  179  A    between atoms: _420  and  _422
REMARK  180  A    between atoms: _422  and  _423
REMARK  181  A    between atoms: _425  and  _427
REMARK  182  A    between atoms: _427  and  _428
REMARK  183  A    between atoms: _427  and  _430
REMARK  184  A    between atoms: _430  and  _431
REMARK  185  A    between atoms: _434  and  _436
REMARK  186  A    between atoms: _436  and  _437
REMARK  187  A    between atoms: _440  and  _442
REMARK  188  A    between atoms: _442  and  _443
REMARK  189  A    between atoms: _442  and  _445
REMARK  190  A    between atoms: _445  and  _446
REMARK  191  A    between atoms: _449  and  _451
REMARK  192  A    between atoms: _451  and  _452
REMARK  193  A    between atoms: _451  and  _454
REMARK  194  A    between atoms: _454  and  _455
REMARK  195  A    between atoms: _458  and  _460
REMARK  196  A    between atoms: _460  and  _461
REMARK  197  A    between atoms: _463  and  _465
REMARK  198  A    between atoms: _465  and  _466
REMARK  199  A    between atoms: _465  and  _468
REMARK  200  A    between atoms: _468  and  _469
REMARK  201  A    between atoms: _472  and  _474
REMARK  202  A    between atoms: _474  and  _475
REMARK  203  A    between atoms: _474  and  _477
REMARK  204  A    between atoms: _477  and  _478
REMARK  205  A    between atoms: _481  and  _483
REMARK  206  A    between atoms: _483  and  _484
REMARK  207  A    between atoms: _483  and  _486
REMARK  208  A    between atoms: _486  and  _487
REMARK  209  A    between atoms: _490  and  _492
REMARK  210  A    between atoms: _492  and  _493
REMARK  211  A    between atoms: _492  and  _495
REMARK  212  A    between atoms: _495  and  _496
REMARK  213  A    between atoms: _499  and  _501
REMARK  214  A    between atoms: _501  and  _502
REMARK  215  A    between atoms: _501  and  _504
REMARK  216  A    between atoms: _504  and  _505
REMARK  217  A    between atoms: _510  and  _511
REMARK  218  A    between atoms: _513  and  _515
REMARK  219  A    between atoms: _515  and  _516
REMARK  220  A    between atoms: _515  and  _518
REMARK  221  A    between atoms: _521  and  _523
REMARK  222  A    between atoms: _523  and  _524
REMARK  223  A    between atoms: _526  and  _528
REMARK  224  A    between atoms: _528  and  _529
REMARK  225  A    between atoms: _528  and  _531
REMARK  226  A    between atoms: _531  and  _532
REMARK  227  A    between atoms: _538  and  _540
REMARK  228  A    between atoms: _540  and  _541
REMARK  229  A    between atoms: _543  and  _545
REMARK  230  A    between atoms: _545  and  _546
REMARK  231  A    between atoms: _545  and  _548
REMARK  232  A    between atoms: _548  and  _549
REMARK  233  A    between atoms: _555  and  _557
REMARK  234  A    between atoms: _557  and  _558
REMARK  235  A    between atoms: _560  and  _562
REMARK  236  A    between atoms: _562  and  _563
REMARK  237  A    between atoms: _565  and  _567
REMARK  238  A    between atoms: _567  and  _568
REMARK  239  A    between atoms: _567  and  _570
REMARK  240  A    between atoms: _570  and  _571
REMARK  241  A    between atoms: _571  and  _572
REMARK  242  A    between atoms: _577  and  _579
REMARK  243  A    between atoms: _579  and  _580
REMARK  244  A    between atoms: _579  and  _582
REMARK  245  A    between atoms: _582  and  _583
REMARK  246  A    between atoms: _585  and  _587
REMARK  247  A    between atoms: _587  and  _588
REMARK  248  A    between atoms: _587  and  _590
REMARK  249  A    between atoms: _590  and  _591
REMARK  250  A    between atoms: _593  and  _595
REMARK  251  A    between atoms: _595  and  _596
REMARK  252  A    between atoms: _598  and  _600
REMARK  253  A    between atoms: _600  and  _601
REMARK  254  A    between atoms: _600  and  _603
REMARK  255  A    between atoms: _603  and  _604
REMARK  256  A    between atoms: _607  and  _609
REMARK  257  A    between atoms: _609  and  _610
REMARK  258  A    between atoms: _612  and  _614
REMARK  259  A    between atoms: _614  and  _615
REMARK  260  A    between atoms: _614  and  _617
REMARK  261  A    between atoms: _617  and  _618
REMARK  262  A    between atoms: _621  and  _623
REMARK  263  A    between atoms: _623  and  _624
REMARK  264  A    between atoms: _623  and  _626
REMARK  265  A    between atoms: _626  and  _627
REMARK  266  A    between atoms: _632  and  _634
REMARK  267  A    between atoms: _634  and  _635
REMARK  268  A    between atoms: _634  and  _637
REMARK  269  A    between atoms: _637  and  _638
REMARK  270  A    between atoms: _641  and  _643
REMARK  271  A    between atoms: _643  and  _644
REMARK  272  A    between atoms: _643  and  _646
REMARK  273  A    between atoms: _646  and  _647
REMARK  274  A    between atoms: _653  and  _655
REMARK  275  A    between atoms: _655  and  _656
REMARK  276  A    between atoms: _658  and  _660
REMARK  277  A    between atoms: _660  and  _661
REMARK  278  A    between atoms: _660  and  _663
REMARK  279  A    between atoms: _663  and  _664
REMARK                            x       y       z     vdW  Elec       q    Type
REMARK                         _______ _______ _______ _____ _____    ______ ____
ROOT
ATOM      1  O   HOH     1      12.968  32.995  23.707  0.00  0.00    +0.000 OA
ENDROOT
TORSDOF 0
REMARK  Name = ../refined-set-2016/4er1/4er1_pocket.pdb
REMARK  279 active torsions:
REMARK  status: ('A' for Active; 'I' for Inactive)
REMARK    1  A    between atoms: _1  and  _3
REMARK    2  A    between atoms: _3  and  _4
REMARK    3  A    between atoms: _3  and  _6
REMARK    4  A    between atoms: _6  and  _7
REMARK    5  A    between atoms: _10  and  _12
REMARK    6  A    between atoms: _12  and  _13
REMARK    7  A    between atoms: _12  and  _15
REMARK    8  A    between atoms: _15  and  _16
REMARK    9  A    between atoms: _19  and  _21
REMARK   10  A    between atoms: _21  and  _22
REMARK   11  A    between atoms: _21  and  _24
REMARK   12  A    between atoms: _24  and  _25
REMARK   13  A    between atoms: _28  and  _30
REMARK   14  A    between atoms: _30  and  _31
REMARK   15  A    between atoms: _30  and  _33
REMARK   16  A    between atoms: _33  and  _34
REMARK   17  A    between atoms: _37  and  _39
REMARK   18  A    between atoms: _39  and  _40
REMARK   19  A    between atoms: _39  and  _42
REMARK   20  A    between atoms: _42  and  _43
REMARK   21  A    between atoms: _46  and  _48
REMARK   22  A    between atoms: _48  and  _49
REMARK   23  A    between atoms: _52  and  _54
REMARK   24  A    between atoms: _54  and  _55
REMARK   25  A    between atoms: _54  and  _57
REMARK   26  A    between atoms: _57  and  _58
REMARK   27  A    between atoms: _63  and  _64
REMARK   28  A    between atoms: _66  and  _68
REMARK   29  A    between atoms: _68  and  _69
REMARK   30  A    between atoms: _68  and  _71
REMARK   31  A    between atoms: _71  and  _72
REMARK   32  A    between atoms: _75  and  _77
REMARK   33  A    between atoms: _77  and  _78
REMARK   34  A    between atoms: _77  and  _80
REMARK   35  A    between atoms: _80  and  _81
REMARK   36  A    between atoms: _87  and  _89
REMARK   37  A    between atoms: _89  and  _90
REMARK   38  A    between atoms: _89  and  _92
REMARK   39  A    between atoms: _92  and  _93
REMARK   40  A    between atoms: _96  and  _98
REMARK   41  A    between atoms: _98  and  _99
REMARK   42  A    between atoms: _98  and  _101
REMARK   43  A    between atoms: _101  and  _102
REMARK   44  A    between atoms: _105  and  _107
REMARK   45  A    between atoms: _107  and  _108
REMARK   46  A    between atoms: _110  and  _112
REMARK   47  A    between atoms: _112  and  _113
REMARK   48  A    between atoms: _112  and  _115
REMARK   49  A    between atoms: _115  and  _116
REMARK   50  A    between atoms: _118  and  _120
REMARK   51  A    between atoms: _120  and  _121
REMARK   52  A    between atoms: _120  and  _123
REMARK   53  A    between atoms: _123  and  _124
REMARK   54  A    between atoms: _126  and  _128
REMARK   55  A    between atoms: _128  and  _129
REMARK   56  A    between atoms: _128  and  _131
REMARK   57  A    between atoms: _131  and  _132
REMARK   58  A    between atoms: _135  and  _137
REMARK   59  A    between atoms: _137  and  _138
REMARK   60  A    between atoms: _137  and  _140
REMARK   61  A    between atoms: _140  and  _141
REMARK   62  A    between atoms: _151  and  _153
REMARK   63  A    between atoms: _153  and  _154
REMARK   64  A    between atoms: _153  and  _156
REMARK   65  A    between atoms: _156  and  _157
REMARK   66  A    between atoms: _159  and  _161
REMARK   67  A    between atoms: _161  and  _162
REMARK   68  A    between atoms: _161  and  _164
REMARK   69  A    between atoms: _164  and  _165
REMARK   70  A    between atoms: _168  and  _170
REMARK   71  A    between atoms: _170  and  _171
REMARK   72  A    between atoms: _170  and  _173
REMARK   73  A    between atoms: _173  and  _174
REMARK   74  A    between atoms: _176  and  _178
REMARK   75  A    between atoms: _178  and  _179
REMARK   76  A    between atoms: _178  and  _181
REMARK   77  A    between atoms: _181  and  _182
REMARK   78  A    between atoms: _187  and  _188
REMARK   79  A    between atoms: _190  and  _192
REMARK   80  A    between atoms: _192  and  _193
REMARK   81  A    between atoms: _195  and  _197
REMARK   82  A    between atoms: _197  and  _198
REMARK   83  A    between atoms: _197  and  _200
REMARK   84  A    between atoms: _200  and  _201
REMARK   85  A    between atoms: _204  and  _206
REMARK   86  A    between atoms: _206  and  _207
REMARK   87  A    between atoms: _209  and  _211
REMARK   88  A    between atoms: _211  and  _212
REMARK   89  A    between atoms: _211  and  _214
REMARK   90  A    between atoms: _214  and  _215
REMARK   91  A    between atoms: _217  and  _219
REMARK   92  A    between atoms: _219  and  _220
REMARK   93  A    between atoms: _219  and  _222
REMARK   94  A    between atoms: _222  and  _223
REMARK   95  A    between atoms: _225  and  _227
REMARK   96  A    between atoms: _227  and  _228
REMARK   97  A    between atoms: _227  and  _230
REMARK   98  A    between atoms: _230  and  _231
REMARK   99  A    between atoms: _233  and  _235
REMARK  100  A    between atoms: _235  and  _236
REMARK  101  A    between atoms: _235  and  _238
REMARK  102  A    between atoms: _238  and  _239
REMARK  103  A    between atoms: _241  and  _243
REMARK  104  A    between atoms: _243  and  _244
REMARK  105  A    between atoms: _243  and  _246
REMARK  106  A    between atoms: _246  and  _247
REMARK  107  A    between atoms: _249  and  _251
REMARK  108  A    between atoms: _251  and  _252
REMARK  109  A    between atoms: _251  and  _254
REMARK  110  A    between atoms: _254  and  _255
REMARK  111  A    between atoms: _261  and  _263
REMARK  112  A    between atoms: _263  and  _264
REMARK  113  A    between atoms: _263  and  _266
REMARK  114  A    between atoms: _266  and  _267
REMARK  115  A    between atoms: _270  and  _272
REMARK  116  A    between atoms: _272  and  _273
REMARK  117  A    between atoms: _272  and  _275
REMARK  118  A    between atoms: _275  and  _276
REMARK  119  A    between atoms: _276  and  _277
REMARK  120  A    between atoms: _280  and  _282
REMARK  121  A    between atoms: _282  and  _283
REMARK  122  A    between atoms: _282  and  _285
REMARK  123  A    between atoms: _285  and  _286
REMARK  124  A    between atoms: _289  and  _291
REMARK  125  A    between atoms: _291  and  _292
REMARK  126  A    between atoms: _291  and  _294
REMARK  127  A    between atoms: _294  and  _295
REMARK  128  A    between atoms: _297  and  _299
REMARK  129  A    between atoms: _299  and  _300
REMARK  130  A    between atoms: _299  and  _302
REMARK  131  A    between atoms: _302  and  _303
REMARK  132  A    between atoms: _306  and  _308
REMARK  133  A    between atoms: _308  and  _309
REMARK  134  A    between atoms: _308  and  _311
REMARK  135  A    between atoms: _311  and  _312
REMARK  136  A    between atoms: _315  and  _317
REMARK  137  A    between atoms: _317  and  _318
REMARK  138  A    between atoms: _320  and  _322
REMARK  139  A    between atoms: _322  and  _323
REMARK  140  A    between atoms: _322  and  _325
REMARK  141  A    between atoms: _325  and  _326
REMARK  142  A    between atoms: _329  and  _331
REMARK  143  A    between atoms: _331  and  _332
REMARK  144  A    between atoms: _331  and  _334
REMARK  145  A    between atoms: _334  and  _335
REMARK  146  A    between atoms: _338  and  _340
REMARK  147  A    between atoms: _340  and  _341
REMARK  148  A    between atoms: _340  and  _343
REMARK  149  A    between atoms: _343  and  _344
REMARK  150  A    between atoms: _347  and  _349
REMARK  151  A    between atoms: _349  and  _350
REMARK  152  A    between atoms: _353  and  _355
REMARK  153  A    between atoms: _355  and  _356
REMARK  154  A    between atoms: _355  and  _358
REMARK  155  A    between atoms: _358  and  _359
REMARK  156  A    between atoms: _362  and  _364
REMARK  157  A    between atoms: _364  and  _365
REMARK  158  A    between atoms: _364  and  _367
REMARK  159  A    between atoms: _367  and  _368
REMARK  160  A    between atoms: _371  and  _373
REMARK  161  A    between atoms: _373  and  _374
REMARK  162  A    between atoms: _373  and  _376
REMARK  163  A    between atoms: _376  and  _377
REMARK  164  A    between atoms: _382  and  _384
REMARK  165  A    between atoms: _384  and  _385
REMARK  166  A    between atoms: _384  and  _387
REMARK  167  A    between atoms: _387  and  _388
REMARK  168  A    between atoms: _391  and  _393
REMARK  169  A    between atoms: _393  and  _394
REMARK  170  A    between atoms: _393  and  _396
REMARK  171  A    between atoms: _396  and  _397
REMARK  172  A    between atoms: _397  and  _398
REMARK  173  A    between atoms: _403  and  _405
REMARK  174  A    between atoms: _405  and  _406
REMARK  175  A    between atoms: _408  and  _410
REMARK  176  A    between atoms: _410  and  _411
REMARK  177  A    between atoms: _410  and  _413
REMARK  178  A    between atoms: _413  and  _414
REMARK  179  A    between atoms: _420  and  _422
REMARK  180  A    between atoms: _422  and  _423
REMARK  181  A    between atoms: _425  and  _427
REMARK  182  A    between atoms: _427  and  _428
REMARK  183  A    between atoms: _427  and  _430
REMARK  184  A    between atoms: _430  and  _431
REMARK  185  A    between atoms: _434  and  _436
REMARK  186  A    between atoms: _436  and  _437
REMARK  187  A    between atoms: _440  and  _442
REMARK  188  A    between atoms: _442  and  _443
REMARK  189  A    between atoms: _442  and  _445
REMARK  190  A    between atoms: _445  and  _446
REMARK  191  A    between atoms: _449  and  _451
REMARK  192  A    between atoms: _451  and  _452
REMARK  193  A    between atoms: _451  and  _454
REMARK  194  A    between atoms: _454  and  _455
REMARK  195  A    between atoms: _458  and  _460
REMARK  196  A    between atoms: _460  and  _461
REMARK  197  A    between atoms: _463  and  _465
REMARK  198  A    between atoms: _465  and  _466
REMARK  199  A    between atoms: _465  and  _468
REMARK  200  A    between atoms: _468  and  _469
REMARK  201  A    between atoms: _472  and  _474
REMARK  202  A    between atoms: _474  and  _475
REMARK  203  A    between atoms: _474  and  _477
REMARK  204  A    between atoms: _477  and  _478
REMARK  205  A    between atoms: _481  and  _483
REMARK  206  A    between atoms: _483  and  _484
REMARK  207  A    between atoms: _483  and  _486
REMARK  208  A    between atoms: _486  and  _487
REMARK  209  A    between atoms: _490  and  _492
REMARK  210  A    between atoms: _492  and  _493
REMARK  211  A    between atoms: _492  and  _495
REMARK  212  A    between atoms: _495  and  _496
REMARK  213  A    between atoms: _499  and  _501
REMARK  214  A    between atoms: _501  and  _502
REMARK  215  A    between atoms: _501  and  _504
REMARK  216  A    between atoms: _504  and  _505
REMARK  217  A    between atoms: _510  and  _511
REMARK  218  A    between atoms: _513  and  _515
REMARK  219  A    between atoms: _515  and  _516
REMARK  220  A    between atoms: _515  and  _518
REMARK  221  A    between atoms: _521  and  _523
REMARK  222  A    between atoms: _523  and  _524
REMARK  223  A    between atoms: _526  and  _528
REMARK  224  A    between atoms: _528  and  _529
REMARK  225  A    between atoms: _528  and  _531
REMARK  226  A    between atoms: _531  and  _532
REMARK  227  A    between atoms: _538  and  _540
REMARK  228  A    between atoms: _540  and  _541
REMARK  229  A    between atoms: _543  and  _545
REMARK  230  A    between atoms: _545  and  _546
REMARK  231  A    between atoms: _545  and  _548
REMARK  232  A    between atoms: _548  and  _549
REMARK  233  A    between atoms: _555  and  _557
REMARK  234  A    between atoms: _557  and  _558
REMARK  235  A    between atoms: _560  and  _562
REMARK  236  A    between atoms: _562  and  _563
REMARK  237  A    between atoms: _565  and  _567
REMARK  238  A    between atoms: _567  and  _568
REMARK  239  A    between atoms: _567  and  _570
REMARK  240  A    between atoms: _570  and  _571
REMARK  241  A    between atoms: _571  and  _572
REMARK  242  A    between atoms: _577  and  _579
REMARK  243  A    between atoms: _579  and  _580
REMARK  244  A    between atoms: _579  and  _582
REMARK  245  A    between atoms: _582  and  _583
REMARK  246  A    between atoms: _585  and  _587
REMARK  247  A    between atoms: _587  and  _588
REMARK  248  A    between atoms: _587  and  _590
REMARK  249  A    between atoms: _590  and  _591
REMARK  250  A    between atoms: _593  and  _595
REMARK  251  A    between atoms: _595  and  _596
REMARK  252  A    between atoms: _598  and  _600
REMARK  253  A    between atoms: _600  and  _601
REMARK  254  A    between atoms: _600  and  _603
REMARK  255  A    between atoms: _603  and  _604
REMARK  256  A    between atoms: _607  and  _609
REMARK  257  A    between atoms: _609  and  _610
REMARK  258  A    between atoms: _612  and  _614
REMARK  259  A    between atoms: _614  and  _615
REMARK  260  A    between atoms: _614  and  _617
REMARK  261  A    between atoms: _617  and  _618
REMARK  262  A    between atoms: _621  and  _623
REMARK  263  A    between atoms: _623  and  _624
REMARK  264  A    between atoms: _623  and  _626
REMARK  265  A    between atoms: _626  and  _627
REMARK  266  A    between atoms: _632  and  _634
REMARK  267  A    between atoms: _634  and  _635
REMARK  268  A    between atoms: _634  and  _637
REMARK  269  A    between atoms: _637  and  _638
REMARK  270  A    between atoms: _641  and  _643
REMARK  271  A    between atoms: _643  and  _644
REMARK  272  A    between atoms: _643  and  _646
REMARK  273  A    between atoms: _646  and  _647
REMARK  274  A    between atoms: _653  and  _655
REMARK  275  A    between atoms: _655  and  _656
REMARK  276  A    between atoms: _658  and  _660
REMARK  277  A    between atoms: _660  and  _661
REMARK  278  A    between atoms: _660  and  _663
REMARK  279  A    between atoms: _663  and  _664
REMARK                            x       y       z     vdW  Elec       q    Type
REMARK                         _______ _______ _______ _____ _____    ______ ____
ROOT
ATOM      1  O   HOH     1       4.725  33.468   5.058  0.00  0.00    +0.000 OA
ENDROOT
TORSDOF 0
REMARK  Name = ../refined-set-2016/4er1/4er1_pocket.pdb
REMARK  279 active torsions:
REMARK  status: ('A' for Active; 'I' for Inactive)
REMARK    1  A    between atoms: _1  and  _3
REMARK    2  A    between atoms: _3  and  _4
REMARK    3  A    between atoms: _3  and  _6
REMARK    4  A    between atoms: _6  and  _7
REMARK    5  A    between atoms: _10  and  _12
REMARK    6  A    between atoms: _12  and  _13
REMARK    7  A    between atoms: _12  and  _15
REMARK    8  A    between atoms: _15  and  _16
REMARK    9  A    between atoms: _19  and  _21
REMARK   10  A    between atoms: _21  and  _22
REMARK   11  A    between atoms: _21  and  _24
REMARK   12  A    between atoms: _24  and  _25
REMARK   13  A    between atoms: _28  and  _30
REMARK   14  A    between atoms: _30  and  _31
REMARK   15  A    between atoms: _30  and  _33
REMARK   16  A    between atoms: _33  and  _34
REMARK   17  A    between atoms: _37  and  _39
REMARK   18  A    between atoms: _39  and  _40
REMARK   19  A    between atoms: _39  and  _42
REMARK   20  A    between atoms: _42  and  _43
REMARK   21  A    between atoms: _46  and  _48
REMARK   22  A    between atoms: _48  and  _49
REMARK   23  A    between atoms: _52  and  _54
REMARK   24  A    between atoms: _54  and  _55
REMARK   25  A    between atoms: _54  and  _57
REMARK   26  A    between atoms: _57  and  _58
REMARK   27  A    between atoms: _63  and  _64
REMARK   28  A    between atoms: _66  and  _68
REMARK   29  A    between atoms: _68  and  _69
REMARK   30  A    between atoms: _68  and  _71
REMARK   31  A    between atoms: _71  and  _72
REMARK   32  A    between atoms: _75  and  _77
REMARK   33  A    between atoms: _77  and  _78
REMARK   34  A    between atoms: _77  and  _80
REMARK   35  A    between atoms: _80  and  _81
REMARK   36  A    between atoms: _87  and  _89
REMARK   37  A    between atoms: _89  and  _90
REMARK   38  A    between atoms: _89  and  _92
REMARK   39  A    between atoms: _92  and  _93
REMARK   40  A    between atoms: _96  and  _98
REMARK   41  A    between atoms: _98  and  _99
REMARK   42  A    between atoms: _98  and  _101
REMARK   43  A    between atoms: _101  and  _102
REMARK   44  A    between atoms: _105  and  _107
REMARK   45  A    between atoms: _107  and  _108
REMARK   46  A    between atoms: _110  and  _112
REMARK   47  A    between atoms: _112  and  _113
REMARK   48  A    between atoms: _112  and  _115
REMARK   49  A    between atoms: _115  and  _116
REMARK   50  A    between atoms: _118  and  _120
REMARK   51  A    between atoms: _120  and  _121
REMARK   52  A    between atoms: _120  and  _123
REMARK   53  A    between atoms: _123  and  _124
REMARK   54  A    between atoms: _126  and  _128
REMARK   55  A    between atoms: _128  and  _129
REMARK   56  A    between atoms: _128  and  _131
REMARK   57  A    between atoms: _131  and  _132
REMARK   58  A    between atoms: _135  and  _137
REMARK   59  A    between atoms: _137  and  _138
REMARK   60  A    between atoms: _137  and  _140
REMARK   61  A    between atoms: _140  and  _141
REMARK   62  A    between atoms: _151  and  _153
REMARK   63  A    between atoms: _153  and  _154
REMARK   64  A    between atoms: _153  and  _156
REMARK   65  A    between atoms: _156  and  _157
REMARK   66  A    between atoms: _159  and  _161
REMARK   67  A    between atoms: _161  and  _162
REMARK   68  A    between atoms: _161  and  _164
REMARK   69  A    between atoms: _164  and  _165
REMARK   70  A    between atoms: _168  and  _170
REMARK   71  A    between atoms: _170  and  _171
REMARK   72  A    between atoms: _170  and  _173
REMARK   73  A    between atoms: _173  and  _174
REMARK   74  A    between atoms: _176  and  _178
REMARK   75  A    between atoms: _178  and  _179
REMARK   76  A    between atoms: _178  and  _181
REMARK   77  A    between atoms: _181  and  _182
REMARK   78  A    between atoms: _187  and  _188
REMARK   79  A    between atoms: _190  and  _192
REMARK   80  A    between atoms: _192  and  _193
REMARK   81  A    between atoms: _195  and  _197
REMARK   82  A    between atoms: _197  and  _198
REMARK   83  A    between atoms: _197  and  _200
REMARK   84  A    between atoms: _200  and  _201
REMARK   85  A    between atoms: _204  and  _206
REMARK   86  A    between atoms: _206  and  _207
REMARK   87  A    between atoms: _209  and  _211
REMARK   88  A    between atoms: _211  and  _212
REMARK   89  A    between atoms: _211  and  _214
REMARK   90  A    between atoms: _214  and  _215
REMARK   91  A    between atoms: _217  and  _219
REMARK   92  A    between atoms: _219  and  _220
REMARK   93  A    between atoms: _219  and  _222
REMARK   94  A    between atoms: _222  and  _223
REMARK   95  A    between atoms: _225  and  _227
REMARK   96  A    between atoms: _227  and  _228
REMARK   97  A    between atoms: _227  and  _230
REMARK   98  A    between atoms: _230  and  _231
REMARK   99  A    between atoms: _233  and  _235
REMARK  100  A    between atoms: _235  and  _236
REMARK  101  A    between atoms: _235  and  _238
REMARK  102  A    between atoms: _238  and  _239
REMARK  103  A    between atoms: _241  and  _243
REMARK  104  A    between atoms: _243  and  _244
REMARK  105  A    between atoms: _243  and  _246
REMARK  106  A    between atoms: _246  and  _247
REMARK  107  A    between atoms: _249  and  _251
REMARK  108  A    between atoms: _251  and  _252
REMARK  109  A    between atoms: _251  and  _254
REMARK  110  A    between atoms: _254  and  _255
REMARK  111  A    between atoms: _261  and  _263
REMARK  112  A    between atoms: _263  and  _264
REMARK  113  A    between atoms: _263  and  _266
REMARK  114  A    between atoms: _266  and  _267
REMARK  115  A    between atoms: _270  and  _272
REMARK  116  A    between atoms: _272  and  _273
REMARK  117  A    between atoms: _272  and  _275
REMARK  118  A    between atoms: _275  and  _276
REMARK  119  A    between atoms: _276  and  _277
REMARK  120  A    between atoms: _280  and  _282
REMARK  121  A    between atoms: _282  and  _283
REMARK  122  A    between atoms: _282  and  _285
REMARK  123  A    between atoms: _285  and  _286
REMARK  124  A    between atoms: _289  and  _291
REMARK  125  A    between atoms: _291  and  _292
REMARK  126  A    between atoms: _291  and  _294
REMARK  127  A    between atoms: _294  and  _295
REMARK  128  A    between atoms: _297  and  _299
REMARK  129  A    between atoms: _299  and  _300
REMARK  130  A    between atoms: _299  and  _302
REMARK  131  A    between atoms: _302  and  _303
REMARK  132  A    between atoms: _306  and  _308
REMARK  133  A    between atoms: _308  and  _309
REMARK  134  A    between atoms: _308  and  _311
REMARK  135  A    between atoms: _311  and  _312
REMARK  136  A    between atoms: _315  and  _317
REMARK  137  A    between atoms: _317  and  _318
REMARK  138  A    between atoms: _320  and  _322
REMARK  139  A    between atoms: _322  and  _323
REMARK  140  A    between atoms: _322  and  _325
REMARK  141  A    between atoms: _325  and  _326
REMARK  142  A    between atoms: _329  and  _331
REMARK  143  A    between atoms: _331  and  _332
REMARK  144  A    between atoms: _331  and  _334
REMARK  145  A    between atoms: _334  and  _335
REMARK  146  A    between atoms: _338  and  _340
REMARK  147  A    between atoms: _340  and  _341
REMARK  148  A    between atoms: _340  and  _343
REMARK  149  A    between atoms: _343  and  _344
REMARK  150  A    between atoms: _347  and  _349
REMARK  151  A    between atoms: _349  and  _350
REMARK  152  A    between atoms: _353  and  _355
REMARK  153  A    between atoms: _355  and  _356
REMARK  154  A    between atoms: _355  and  _358
REMARK  155  A    between atoms: _358  and  _359
REMARK  156  A    between atoms: _362  and  _364
REMARK  157  A    between atoms: _364  and  _365
REMARK  158  A    between atoms: _364  and  _367
REMARK  159  A    between atoms: _367  and  _368
REMARK  160  A    between atoms: _371  and  _373
REMARK  161  A    between atoms: _373  and  _374
REMARK  162  A    between atoms: _373  and  _376
REMARK  163  A    between atoms: _376  and  _377
REMARK  164  A    between atoms: _382  and  _384
REMARK  165  A    between atoms: _384  and  _385
REMARK  166  A    between atoms: _384  and  _387
REMARK  167  A    between atoms: _387  and  _388
REMARK  168  A    between atoms: _391  and  _393
REMARK  169  A    between atoms: _393  and  _394
REMARK  170  A    between atoms: _393  and  _396
REMARK  171  A    between atoms: _396  and  _397
REMARK  172  A    between atoms: _397  and  _398
REMARK  173  A    between atoms: _403  and  _405
REMARK  174  A    between atoms: _405  and  _406
REMARK  175  A    between atoms: _408  and  _410
REMARK  176  A    between atoms: _410  and  _411
REMARK  177  A    between atoms: _410  and  _413
REMARK  178  A    between atoms: _413  and  _414
REMARK  179  A    between atoms: _420  and  _422
REMARK  180  A    between atoms: _422  and  _423
REMARK  181  A    between atoms: _425  and  _427
REMARK  182  A    between atoms: _427  and  _428
REMARK  183  A    between atoms: _427  and  _430
REMARK  184  A    between atoms: _430  and  _431
REMARK  185  A    between atoms: _434  and  _436
REMARK  186  A    between atoms: _436  and  _437
REMARK  187  A    between atoms: _440  and  _442
REMARK  188  A    between atoms: _442  and  _443
REMARK  189  A    between atoms: _442  and  _445
REMARK  190  A    between atoms: _445  and  _446
REMARK  191  A    between atoms: _449  and  _451
REMARK  192  A    between atoms: _451  and  _452
REMARK  193  A    between atoms: _451  and  _454
REMARK  194  A    between atoms: _454  and  _455
REMARK  195  A    between atoms: _458  and  _460
REMARK  196  A    between atoms: _460  and  _461
REMARK  197  A    between atoms: _463  and  _465
REMARK  198  A    between atoms: _465  and  _466
REMARK  199  A    between atoms: _465  and  _468
REMARK  200  A    between atoms: _468  and  _469
REMARK  201  A    between atoms: _472  and  _474
REMARK  202  A    between atoms: _474  and  _475
REMARK  203  A    between atoms: _474  and  _477
REMARK  204  A    between atoms: _477  and  _478
REMARK  205  A    between atoms: _481  and  _483
REMARK  206  A    between atoms: _483  and  _484
REMARK  207  A    between atoms: _483  and  _486
REMARK  208  A    between atoms: _486  and  _487
REMARK  209  A    between atoms: _490  and  _492
REMARK  210  A    between atoms: _492  and  _493
REMARK  211  A    between atoms: _492  and  _495
REMARK  212  A    between atoms: _495  and  _496
REMARK  213  A    between atoms: _499  and  _501
REMARK  214  A    between atoms: _501  and  _502
REMARK  215  A    between atoms: _501  and  _504
REMARK  216  A    between atoms: _504  and  _505
REMARK  217  A    between atoms: _510  and  _511
REMARK  218  A    between atoms: _513  and  _515
REMARK  219  A    between atoms: _515  and  _516
REMARK  220  A    between atoms: _515  and  _518
REMARK  221  A    between atoms: _521  and  _523
REMARK  222  A    between atoms: _523  and  _524
REMARK  223  A    between atoms: _526  and  _528
REMARK  224  A    between atoms: _528  and  _529
REMARK  225  A    between atoms: _528  and  _531
REMARK  226  A    between atoms: _531  and  _532
REMARK  227  A    between atoms: _538  and  _540
REMARK  228  A    between atoms: _540  and  _541
REMARK  229  A    between atoms: _543  and  _545
REMARK  230  A    between atoms: _545  and  _546
REMARK  231  A    between atoms: _545  and  _548
REMARK  232  A    between atoms: _548  and  _549
REMARK  233  A    between atoms: _555  and  _557
REMARK  234  A    between atoms: _557  and  _558
REMARK  235  A    between atoms: _560  and  _562
REMARK  236  A    between atoms: _562  and  _563
REMARK  237  A    between atoms: _565  and  _567
REMARK  238  A    between atoms: _567  and  _568
REMARK  239  A    between atoms: _567  and  _570
REMARK  240  A    between atoms: _570  and  _571
REMARK  241  A    between atoms: _571  and  _572
REMARK  242  A    between atoms: _577  and  _579
REMARK  243  A    between atoms: _579  and  _580
REMARK  244  A    between atoms: _579  and  _582
REMARK  245  A    between atoms: _582  and  _583
REMARK  246  A    between atoms: _585  and  _587
REMARK  247  A    between atoms: _587  and  _588
REMARK  248  A    between atoms: _587  and  _590
REMARK  249  A    between atoms: _590  and  _591
REMARK  250  A    between atoms: _593  and  _595
REMARK  251  A    between atoms: _595  and  _596
REMARK  252  A    between atoms: _598  and  _600
REMARK  253  A    between atoms: _600  and  _601
REMARK  254  A    between atoms: _600  and  _603
REMARK  255  A    between atoms: _603  and  _604
REMARK  256  A    between atoms: _607  and  _609
REMARK  257  A    between atoms: _609  and  _610
REMARK  258  A    between atoms: _612  and  _614
REMARK  259  A    between atoms: _614  and  _615
REMARK  260  A    between atoms: _614  and  _617
REMARK  261  A    between atoms: _617  and  _618
REMARK  262  A    between atoms: _621  and  _623
REMARK  263  A    between atoms: _623  and  _624
REMARK  264  A    between atoms: _623  and  _626
REMARK  265  A    between atoms: _626  and  _627
REMARK  266  A    between atoms: _632  and  _634
REMARK  267  A    between atoms: _634  and  _635
REMARK  268  A    between atoms: _634  and  _637
REMARK  269  A    between atoms: _637  and  _638
REMARK  270  A    between atoms: _641  and  _643
REMARK  271  A    between atoms: _643  and  _644
REMARK  272  A    between atoms: _643  and  _646
REMARK  273  A    between atoms: _646  and  _647
REMARK  274  A    between atoms: _653  and  _655
REMARK  275  A    between atoms: _655  and  _656
REMARK  276  A    between atoms: _658  and  _660
REMARK  277  A    between atoms: _660  and  _661
REMARK  278  A    between atoms: _660  and  _663
REMARK  279  A    between atoms: _663  and  _664
REMARK                            x       y       z     vdW  Elec       q    Type
REMARK                         _______ _______ _______ _____ _____    ______ ____
ROOT
ATOM      1  O   HOH     1      -3.601  25.334  18.576  0.00  0.00    +0.000 OA
ENDROOT
TORSDOF 0
REMARK  Name = ../refined-set-2016/4er1/4er1_pocket.pdb
REMARK  279 active torsions:
REMARK  status: ('A' for Active; 'I' for Inactive)
REMARK    1  A    between atoms: _1  and  _3
REMARK    2  A    between atoms: _3  and  _4
REMARK    3  A    between atoms: _3  and  _6
REMARK    4  A    between atoms: _6  and  _7
REMARK    5  A    between atoms: _10  and  _12
REMARK    6  A    between atoms: _12  and  _13
REMARK    7  A    between atoms: _12  and  _15
REMARK    8  A    between atoms: _15  and  _16
REMARK    9  A    between atoms: _19  and  _21
REMARK   10  A    between atoms: _21  and  _22
REMARK   11  A    between atoms: _21  and  _24
REMARK   12  A    between atoms: _24  and  _25
REMARK   13  A    between atoms: _28  and  _30
REMARK   14  A    between atoms: _30  and  _31
REMARK   15  A    between atoms: _30  and  _33
REMARK   16  A    between atoms: _33  and  _34
REMARK   17  A    between atoms: _37  and  _39
REMARK   18  A    between atoms: _39  and  _40
REMARK   19  A    between atoms: _39  and  _42
REMARK   20  A    between atoms: _42  and  _43
REMARK   21  A    between atoms: _46  and  _48
REMARK   22  A    between atoms: _48  and  _49
REMARK   23  A    between atoms: _52  and  _54
REMARK   24  A    between atoms: _54  and  _55
REMARK   25  A    between atoms: _54  and  _57
REMARK   26  A    between atoms: _57  and  _58
REMARK   27  A    between atoms: _63  and  _64
REMARK   28  A    between atoms: _66  and  _68
REMARK   29  A    between atoms: _68  and  _69
REMARK   30  A    between atoms: _68  and  _71
REMARK   31  A    between atoms: _71  and  _72
REMARK   32  A    between atoms: _75  and  _77
REMARK   33  A    between atoms: _77  and  _78
REMARK   34  A    between atoms: _77  and  _80
REMARK   35  A    between atoms: _80  and  _81
REMARK   36  A    between atoms: _87  and  _89
REMARK   37  A    between atoms: _89  and  _90
REMARK   38  A    between atoms: _89  and  _92
REMARK   39  A    between atoms: _92  and  _93
REMARK   40  A    between atoms: _96  and  _98
REMARK   41  A    between atoms: _98  and  _99
REMARK   42  A    between atoms: _98  and  _101
REMARK   43  A    between atoms: _101  and  _102
REMARK   44  A    between atoms: _105  and  _107
REMARK   45  A    between atoms: _107  and  _108
REMARK   46  A    between atoms: _110  and  _112
REMARK   47  A    between atoms: _112  and  _113
REMARK   48  A    between atoms: _112  and  _115
REMARK   49  A    between atoms: _115  and  _116
REMARK   50  A    between atoms: _118  and  _120
REMARK   51  A    between atoms: _120  and  _121
REMARK   52  A    between atoms: _120  and  _123
REMARK   53  A    between atoms: _123  and  _124
REMARK   54  A    between atoms: _126  and  _128
REMARK   55  A    between atoms: _128  and  _129
REMARK   56  A    between atoms: _128  and  _131
REMARK   57  A    between atoms: _131  and  _132
REMARK   58  A    between atoms: _135  and  _137
REMARK   59  A    between atoms: _137  and  _138
REMARK   60  A    between atoms: _137  and  _140
REMARK   61  A    between atoms: _140  and  _141
REMARK   62  A    between atoms: _151  and  _153
REMARK   63  A    between atoms: _153  and  _154
REMARK   64  A    between atoms: _153  and  _156
REMARK   65  A    between atoms: _156  and  _157
REMARK   66  A    between atoms: _159  and  _161
REMARK   67  A    between atoms: _161  and  _162
REMARK   68  A    between atoms: _161  and  _164
REMARK   69  A    between atoms: _164  and  _165
REMARK   70  A    between atoms: _168  and  _170
REMARK   71  A    between atoms: _170  and  _171
REMARK   72  A    between atoms: _170  and  _173
REMARK   73  A    between atoms: _173  and  _174
REMARK   74  A    between atoms: _176  and  _178
REMARK   75  A    between atoms: _178  and  _179
REMARK   76  A    between atoms: _178  and  _181
REMARK   77  A    between atoms: _181  and  _182
REMARK   78  A    between atoms: _187  and  _188
REMARK   79  A    between atoms: _190  and  _192
REMARK   80  A    between atoms: _192  and  _193
REMARK   81  A    between atoms: _195  and  _197
REMARK   82  A    between atoms: _197  and  _198
REMARK   83  A    between atoms: _197  and  _200
REMARK   84  A    between atoms: _200  and  _201
REMARK   85  A    between atoms: _204  and  _206
REMARK   86  A    between atoms: _206  and  _207
REMARK   87  A    between atoms: _209  and  _211
REMARK   88  A    between atoms: _211  and  _212
REMARK   89  A    between atoms: _211  and  _214
REMARK   90  A    between atoms: _214  and  _215
REMARK   91  A    between atoms: _217  and  _219
REMARK   92  A    between atoms: _219  and  _220
REMARK   93  A    between atoms: _219  and  _222
REMARK   94  A    between atoms: _222  and  _223
REMARK   95  A    between atoms: _225  and  _227
REMARK   96  A    between atoms: _227  and  _228
REMARK   97  A    between atoms: _227  and  _230
REMARK   98  A    between atoms: _230  and  _231
REMARK   99  A    between atoms: _233  and  _235
REMARK  100  A    between atoms: _235  and  _236
REMARK  101  A    between atoms: _235  and  _238
REMARK  102  A    between atoms: _238  and  _239
REMARK  103  A    between atoms: _241  and  _243
REMARK  104  A    between atoms: _243  and  _244
REMARK  105  A    between atoms: _243  and  _246
REMARK  106  A    between atoms: _246  and  _247
REMARK  107  A    between atoms: _249  and  _251
REMARK  108  A    between atoms: _251  and  _252
REMARK  109  A    between atoms: _251  and  _254
REMARK  110  A    between atoms: _254  and  _255
REMARK  111  A    between atoms: _261  and  _263
REMARK  112  A    between atoms: _263  and  _264
REMARK  113  A    between atoms: _263  and  _266
REMARK  114  A    between atoms: _266  and  _267
REMARK  115  A    between atoms: _270  and  _272
REMARK  116  A    between atoms: _272  and  _273
REMARK  117  A    between atoms: _272  and  _275
REMARK  118  A    between atoms: _275  and  _276
REMARK  119  A    between atoms: _276  and  _277
REMARK  120  A    between atoms: _280  and  _282
REMARK  121  A    between atoms: _282  and  _283
REMARK  122  A    between atoms: _282  and  _285
REMARK  123  A    between atoms: _285  and  _286
REMARK  124  A    between atoms: _289  and  _291
REMARK  125  A    between atoms: _291  and  _292
REMARK  126  A    between atoms: _291  and  _294
REMARK  127  A    between atoms: _294  and  _295
REMARK  128  A    between atoms: _297  and  _299
REMARK  129  A    between atoms: _299  and  _300
REMARK  130  A    between atoms: _299  and  _302
REMARK  131  A    between atoms: _302  and  _303
REMARK  132  A    between atoms: _306  and  _308
REMARK  133  A    between atoms: _308  and  _309
REMARK  134  A    between atoms: _308  and  _311
REMARK  135  A    between atoms: _311  and  _312
REMARK  136  A    between atoms: _315  and  _317
REMARK  137  A    between atoms: _317  and  _318
REMARK  138  A    between atoms: _320  and  _322
REMARK  139  A    between atoms: _322  and  _323
REMARK  140  A    between atoms: _322  and  _325
REMARK  141  A    between atoms: _325  and  _326
REMARK  142  A    between atoms: _329  and  _331
REMARK  143  A    between atoms: _331  and  _332
REMARK  144  A    between atoms: _331  and  _334
REMARK  145  A    between atoms: _334  and  _335
REMARK  146  A    between atoms: _338  and  _340
REMARK  147  A    between atoms: _340  and  _341
REMARK  148  A    between atoms: _340  and  _343
REMARK  149  A    between atoms: _343  and  _344
REMARK  150  A    between atoms: _347  and  _349
REMARK  151  A    between atoms: _349  and  _350
REMARK  152  A    between atoms: _353  and  _355
REMARK  153  A    between atoms: _355  and  _356
REMARK  154  A    between atoms: _355  and  _358
REMARK  155  A    between atoms: _358  and  _359
REMARK  156  A    between atoms: _362  and  _364
REMARK  157  A    between atoms: _364  and  _365
REMARK  158  A    between atoms: _364  and  _367
REMARK  159  A    between atoms: _367  and  _368
REMARK  160  A    between atoms: _371  and  _373
REMARK  161  A    between atoms: _373  and  _374
REMARK  162  A    between atoms: _373  and  _376
REMARK  163  A    between atoms: _376  and  _377
REMARK  164  A    between atoms: _382  and  _384
REMARK  165  A    between atoms: _384  and  _385
REMARK  166  A    between atoms: _384  and  _387
REMARK  167  A    between atoms: _387  and  _388
REMARK  168  A    between atoms: _391  and  _393
REMARK  169  A    between atoms: _393  and  _394
REMARK  170  A    between atoms: _393  and  _396
REMARK  171  A    between atoms: _396  and  _397
REMARK  172  A    between atoms: _397  and  _398
REMARK  173  A    between atoms: _403  and  _405
REMARK  174  A    between atoms: _405  and  _406
REMARK  175  A    between atoms: _408  and  _410
REMARK  176  A    between atoms: _410  and  _411
REMARK  177  A    between atoms: _410  and  _413
REMARK  178  A    between atoms: _413  and  _414
REMARK  179  A    between atoms: _420  and  _422
REMARK  180  A    between atoms: _422  and  _423
REMARK  181  A    between atoms: _425  and  _427
REMARK  182  A    between atoms: _427  and  _428
REMARK  183  A    between atoms: _427  and  _430
REMARK  184  A    between atoms: _430  and  _431
REMARK  185  A    between atoms: _434  and  _436
REMARK  186  A    between atoms: _436  and  _437
REMARK  187  A    between atoms: _440  and  _442
REMARK  188  A    between atoms: _442  and  _443
REMARK  189  A    between atoms: _442  and  _445
REMARK  190  A    between atoms: _445  and  _446
REMARK  191  A    between atoms: _449  and  _451
REMARK  192  A    between atoms: _451  and  _452
REMARK  193  A    between atoms: _451  and  _454
REMARK  194  A    between atoms: _454  and  _455
REMARK  195  A    between atoms: _458  and  _460
REMARK  196  A    between atoms: _460  and  _461
REMARK  197  A    between atoms: _463  and  _465
REMARK  198  A    between atoms: _465  and  _466
REMARK  199  A    between atoms: _465  and  _468
REMARK  200  A    between atoms: _468  and  _469
REMARK  201  A    between atoms: _472  and  _474
REMARK  202  A    between atoms: _474  and  _475
REMARK  203  A    between atoms: _474  and  _477
REMARK  204  A    between atoms: _477  and  _478
REMARK  205  A    between atoms: _481  and  _483
REMARK  206  A    between atoms: _483  and  _484
REMARK  207  A    between atoms: _483  and  _486
REMARK  208  A    between atoms: _486  and  _487
REMARK  209  A    between atoms: _490  and  _492
REMARK  210  A    between atoms: _492  and  _493
REMARK  211  A    between atoms: _492  and  _495
REMARK  212  A    between atoms: _495  and  _496
REMARK  213  A    between atoms: _499  and  _501
REMARK  214  A    between atoms: _501  and  _502
REMARK  215  A    between atoms: _501  and  _504
REMARK  216  A    between atoms: _504  and  _505
REMARK  217  A    between atoms: _510  and  _511
REMARK  218  A    between atoms: _513  and  _515
REMARK  219  A    between atoms: _515  and  _516
REMARK  220  A    between atoms: _515  and  _518
REMARK  221  A    between atoms: _521  and  _523
REMARK  222  A    between atoms: _523  and  _524
REMARK  223  A    between atoms: _526  and  _528
REMARK  224  A    between atoms: _528  and  _529
REMARK  225  A    between atoms: _528  and  _531
REMARK  226  A    between atoms: _531  and  _532
REMARK  227  A    between atoms: _538  and  _540
REMARK  228  A    between atoms: _540  and  _541
REMARK  229  A    between atoms: _543  and  _545
REMARK  230  A    between atoms: _545  and  _546
REMARK  231  A    between atoms: _545  and  _548
REMARK  232  A    between atoms: _548  and  _549
REMARK  233  A    between atoms: _555  and  _557
REMARK  234  A    between atoms: _557  and  _558
REMARK  235  A    between atoms: _560  and  _562
REMARK  236  A    between atoms: _562  and  _563
REMARK  237  A    between atoms: _565  and  _567
REMARK  238  A    between atoms: _567  and  _568
REMARK  239  A    between atoms: _567  and  _570
REMARK  240  A    between atoms: _570  and  _571
REMARK  241  A    between atoms: _571  and  _572
REMARK  242  A    between atoms: _577  and  _579
REMARK  243  A    between atoms: _579  and  _580
REMARK  244  A    between atoms: _579  and  _582
REMARK  245  A    between atoms: _582  and  _583
REMARK  246  A    between atoms: _585  and  _587
REMARK  247  A    between atoms: _587  and  _588
REMARK  248  A    between atoms: _587  and  _590
REMARK  249  A    between atoms: _590  and  _591
REMARK  250  A    between atoms: _593  and  _595
REMARK  251  A    between atoms: _595  and  _596
REMARK  252  A    between atoms: _598  and  _600
REMARK  253  A    between atoms: _600  and  _601
REMARK  254  A    between atoms: _600  and  _603
REMARK  255  A    between atoms: _603  and  _604
REMARK  256  A    between atoms: _607  and  _609
REMARK  257  A    between atoms: _609  and  _610
REMARK  258  A    between atoms: _612  and  _614
REMARK  259  A    between atoms: _614  and  _615
REMARK  260  A    between atoms: _614  and  _617
REMARK  261  A    between atoms: _617  and  _618
REMARK  262  A    between atoms: _621  and  _623
REMARK  263  A    between atoms: _623  and  _624
REMARK  264  A    between atoms: _623  and  _626
REMARK  265  A    between atoms: _626  and  _627
REMARK  266  A    between atoms: _632  and  _634
REMARK  267  A    between atoms: _634  and  _635
REMARK  268  A    between atoms: _634  and  _637
REMARK  269  A    between atoms: _637  and  _638
REMARK  270  A    between atoms: _641  and  _643
REMARK  271  A    between atoms: _643  and  _644
REMARK  272  A    between atoms: _643  and  _646
REMARK  273  A    between atoms: _646  and  _647
REMARK  274  A    between atoms: _653  and  _655
REMARK  275  A    between atoms: _655  and  _656
REMARK  276  A    between atoms: _658  and  _660
REMARK  277  A    between atoms: _660  and  _661
REMARK  278  A    between atoms: _660  and  _663
REMARK  279  A    between atoms: _663  and  _664
REMARK                            x       y       z     vdW  Elec       q    Type
REMARK                         _______ _______ _______ _____ _____    ______ ____
ROOT
ATOM      1  O   HOH     1      -7.501  25.516  16.632  0.00  0.00    +0.000 OA
ENDROOT
TORSDOF 0
REMARK  Name = ../refined-set-2016/4er1/4er1_pocket.pdb
REMARK  279 active torsions:
REMARK  status: ('A' for Active; 'I' for Inactive)
REMARK    1  A    between atoms: _1  and  _3
REMARK    2  A    between atoms: _3  and  _4
REMARK    3  A    between atoms: _3  and  _6
REMARK    4  A    between atoms: _6  and  _7
REMARK    5  A    between atoms: _10  and  _12
REMARK    6  A    between atoms: _12  and  _13
REMARK    7  A    between atoms: _12  and  _15
REMARK    8  A    between atoms: _15  and  _16
REMARK    9  A    between atoms: _19  and  _21
REMARK   10  A    between atoms: _21  and  _22
REMARK   11  A    between atoms: _21  and  _24
REMARK   12  A    between atoms: _24  and  _25
REMARK   13  A    between atoms: _28  and  _30
REMARK   14  A    between atoms: _30  and  _31
REMARK   15  A    between atoms: _30  and  _33
REMARK   16  A    between atoms: _33  and  _34
REMARK   17  A    between atoms: _37  and  _39
REMARK   18  A    between atoms: _39  and  _40
REMARK   19  A    between atoms: _39  and  _42
REMARK   20  A    between atoms: _42  and  _43
REMARK   21  A    between atoms: _46  and  _48
REMARK   22  A    between atoms: _48  and  _49
REMARK   23  A    between atoms: _52  and  _54
REMARK   24  A    between atoms: _54  and  _55
REMARK   25  A    between atoms: _54  and  _57
REMARK   26  A    between atoms: _57  and  _58
REMARK   27  A    between atoms: _63  and  _64
REMARK   28  A    between atoms: _66  and  _68
REMARK   29  A    between atoms: _68  and  _69
REMARK   30  A    between atoms: _68  and  _71
REMARK   31  A    between atoms: _71  and  _72
REMARK   32  A    between atoms: _75  and  _77
REMARK   33  A    between atoms: _77  and  _78
REMARK   34  A    between atoms: _77  and  _80
REMARK   35  A    between atoms: _80  and  _81
REMARK   36  A    between atoms: _87  and  _89
REMARK   37  A    between atoms: _89  and  _90
REMARK   38  A    between atoms: _89  and  _92
REMARK   39  A    between atoms: _92  and  _93
REMARK   40  A    between atoms: _96  and  _98
REMARK   41  A    between atoms: _98  and  _99
REMARK   42  A    between atoms: _98  and  _101
REMARK   43  A    between atoms: _101  and  _102
REMARK   44  A    between atoms: _105  and  _107
REMARK   45  A    between atoms: _107  and  _108
REMARK   46  A    between atoms: _110  and  _112
REMARK   47  A    between atoms: _112  and  _113
REMARK   48  A    between atoms: _112  and  _115
REMARK   49  A    between atoms: _115  and  _116
REMARK   50  A    between atoms: _118  and  _120
REMARK   51  A    between atoms: _120  and  _121
REMARK   52  A    between atoms: _120  and  _123
REMARK   53  A    between atoms: _123  and  _124
REMARK   54  A    between atoms: _126  and  _128
REMARK   55  A    between atoms: _128  and  _129
REMARK   56  A    between atoms: _128  and  _131
REMARK   57  A    between atoms: _131  and  _132
REMARK   58  A    between atoms: _135  and  _137
REMARK   59  A    between atoms: _137  and  _138
REMARK   60  A    between atoms: _137  and  _140
REMARK   61  A    between atoms: _140  and  _141
REMARK   62  A    between atoms: _151  and  _153
REMARK   63  A    between atoms: _153  and  _154
REMARK   64  A    between atoms: _153  and  _156
REMARK   65  A    between atoms: _156  and  _157
REMARK   66  A    between atoms: _159  and  _161
REMARK   67  A    between atoms: _161  and  _162
REMARK   68  A    between atoms: _161  and  _164
REMARK   69  A    between atoms: _164  and  _165
REMARK   70  A    between atoms: _168  and  _170
REMARK   71  A    between atoms: _170  and  _171
REMARK   72  A    between atoms: _170  and  _173
REMARK   73  A    between atoms: _173  and  _174
REMARK   74  A    between atoms: _176  and  _178
REMARK   75  A    between atoms: _178  and  _179
REMARK   76  A    between atoms: _178  and  _181
REMARK   77  A    between atoms: _181  and  _182
REMARK   78  A    between atoms: _187  and  _188
REMARK   79  A    between atoms: _190  and  _192
REMARK   80  A    between atoms: _192  and  _193
REMARK   81  A    between atoms: _195  and  _197
REMARK   82  A    between atoms: _197  and  _198
REMARK   83  A    between atoms: _197  and  _200
REMARK   84  A    between atoms: _200  and  _201
REMARK   85  A    between atoms: _204  and  _206
REMARK   86  A    between atoms: _206  and  _207
REMARK   87  A    between atoms: _209  and  _211
REMARK   88  A    between atoms: _211  and  _212
REMARK   89  A    between atoms: _211  and  _214
REMARK   90  A    between atoms: _214  and  _215
REMARK   91  A    between atoms: _217  and  _219
REMARK   92  A    between atoms: _219  and  _220
REMARK   93  A    between atoms: _219  and  _222
REMARK   94  A    between atoms: _222  and  _223
REMARK   95  A    between atoms: _225  and  _227
REMARK   96  A    between atoms: _227  and  _228
REMARK   97  A    between atoms: _227  and  _230
REMARK   98  A    between atoms: _230  and  _231
REMARK   99  A    between atoms: _233  and  _235
REMARK  100  A    between atoms: _235  and  _236
REMARK  101  A    between atoms: _235  and  _238
REMARK  102  A    between atoms: _238  and  _239
REMARK  103  A    between atoms: _241  and  _243
REMARK  104  A    between atoms: _243  and  _244
REMARK  105  A    between atoms: _243  and  _246
REMARK  106  A    between atoms: _246  and  _247
REMARK  107  A    between atoms: _249  and  _251
REMARK  108  A    between atoms: _251  and  _252
REMARK  109  A    between atoms: _251  and  _254
REMARK  110  A    between atoms: _254  and  _255
REMARK  111  A    between atoms: _261  and  _263
REMARK  112  A    between atoms: _263  and  _264
REMARK  113  A    between atoms: _263  and  _266
REMARK  114  A    between atoms: _266  and  _267
REMARK  115  A    between atoms: _270  and  _272
REMARK  116  A    between atoms: _272  and  _273
REMARK  117  A    between atoms: _272  and  _275
REMARK  118  A    between atoms: _275  and  _276
REMARK  119  A    between atoms: _276  and  _277
REMARK  120  A    between atoms: _280  and  _282
REMARK  121  A    between atoms: _282  and  _283
REMARK  122  A    between atoms: _282  and  _285
REMARK  123  A    between atoms: _285  and  _286
REMARK  124  A    between atoms: _289  and  _291
REMARK  125  A    between atoms: _291  and  _292
REMARK  126  A    between atoms: _291  and  _294
REMARK  127  A    between atoms: _294  and  _295
REMARK  128  A    between atoms: _297  and  _299
REMARK  129  A    between atoms: _299  and  _300
REMARK  130  A    between atoms: _299  and  _302
REMARK  131  A    between atoms: _302  and  _303
REMARK  132  A    between atoms: _306  and  _308
REMARK  133  A    between atoms: _308  and  _309
REMARK  134  A    between atoms: _308  and  _311
REMARK  135  A    between atoms: _311  and  _312
REMARK  136  A    between atoms: _315  and  _317
REMARK  137  A    between atoms: _317  and  _318
REMARK  138  A    between atoms: _320  and  _322
REMARK  139  A    between atoms: _322  and  _323
REMARK  140  A    between atoms: _322  and  _325
REMARK  141  A    between atoms: _325  and  _326
REMARK  142  A    between atoms: _329  and  _331
REMARK  143  A    between atoms: _331  and  _332
REMARK  144  A    between atoms: _331  and  _334
REMARK  145  A    between atoms: _334  and  _335
REMARK  146  A    between atoms: _338  and  _340
REMARK  147  A    between atoms: _340  and  _341
REMARK  148  A    between atoms: _340  and  _343
REMARK  149  A    between atoms: _343  and  _344
REMARK  150  A    between atoms: _347  and  _349
REMARK  151  A    between atoms: _349  and  _350
REMARK  152  A    between atoms: _353  and  _355
REMARK  153  A    between atoms: _355  and  _356
REMARK  154  A    between atoms: _355  and  _358
REMARK  155  A    between atoms: _358  and  _359
REMARK  156  A    between atoms: _362  and  _364
REMARK  157  A    between atoms: _364  and  _365
REMARK  158  A    between atoms: _364  and  _367
REMARK  159  A    between atoms: _367  and  _368
REMARK  160  A    between atoms: _371  and  _373
REMARK  161  A    between atoms: _373  and  _374
REMARK  162  A    between atoms: _373  and  _376
REMARK  163  A    between atoms: _376  and  _377
REMARK  164  A    between atoms: _382  and  _384
REMARK  165  A    between atoms: _384  and  _385
REMARK  166  A    between atoms: _384  and  _387
REMARK  167  A    between atoms: _387  and  _388
REMARK  168  A    between atoms: _391  and  _393
REMARK  169  A    between atoms: _393  and  _394
REMARK  170  A    between atoms: _393  and  _396
REMARK  171  A    between atoms: _396  and  _397
REMARK  172  A    between atoms: _397  and  _398
REMARK  173  A    between atoms: _403  and  _405
REMARK  174  A    between atoms: _405  and  _406
REMARK  175  A    between atoms: _408  and  _410
REMARK  176  A    between atoms: _410  and  _411
REMARK  177  A    between atoms: _410  and  _413
REMARK  178  A    between atoms: _413  and  _414
REMARK  179  A    between atoms: _420  and  _422
REMARK  180  A    between atoms: _422  and  _423
REMARK  181  A    between atoms: _425  and  _427
REMARK  182  A    between atoms: _427  and  _428
REMARK  183  A    between atoms: _427  and  _430
REMARK  184  A    between atoms: _430  and  _431
REMARK  185  A    between atoms: _434  and  _436
REMARK  186  A    between atoms: _436  and  _437
REMARK  187  A    between atoms: _440  and  _442
REMARK  188  A    between atoms: _442  and  _443
REMARK  189  A    between atoms: _442  and  _445
REMARK  190  A    between atoms: _445  and  _446
REMARK  191  A    between atoms: _449  and  _451
REMARK  192  A    between atoms: _451  and  _452
REMARK  193  A    between atoms: _451  and  _454
REMARK  194  A    between atoms: _454  and  _455
REMARK  195  A    between atoms: _458  and  _460
REMARK  196  A    between atoms: _460  and  _461
REMARK  197  A    between atoms: _463  and  _465
REMARK  198  A    between atoms: _465  and  _466
REMARK  199  A    between atoms: _465  and  _468
REMARK  200  A    between atoms: _468  and  _469
REMARK  201  A    between atoms: _472  and  _474
REMARK  202  A    between atoms: _474  and  _475
REMARK  203  A    between atoms: _474  and  _477
REMARK  204  A    between atoms: _477  and  _478
REMARK  205  A    between atoms: _481  and  _483
REMARK  206  A    between atoms: _483  and  _484
REMARK  207  A    between atoms: _483  and  _486
REMARK  208  A    between atoms: _486  and  _487
REMARK  209  A    between atoms: _490  and  _492
REMARK  210  A    between atoms: _492  and  _493
REMARK  211  A    between atoms: _492  and  _495
REMARK  212  A    between atoms: _495  and  _496
REMARK  213  A    between atoms: _499  and  _501
REMARK  214  A    between atoms: _501  and  _502
REMARK  215  A    between atoms: _501  and  _504
REMARK  216  A    between atoms: _504  and  _505
REMARK  217  A    between atoms: _510  and  _511
REMARK  218  A    between atoms: _513  and  _515
REMARK  219  A    between atoms: _515  and  _516
REMARK  220  A    between atoms: _515  and  _518
REMARK  221  A    between atoms: _521  and  _523
REMARK  222  A    between atoms: _523  and  _524
REMARK  223  A    between atoms: _526  and  _528
REMARK  224  A    between atoms: _528  and  _529
REMARK  225  A    between atoms: _528  and  _531
REMARK  226  A    between atoms: _531  and  _532
REMARK  227  A    between atoms: _538  and  _540
REMARK  228  A    between atoms: _540  and  _541
REMARK  229  A    between atoms: _543  and  _545
REMARK  230  A    between atoms: _545  and  _546
REMARK  231  A    between atoms: _545  and  _548
REMARK  232  A    between atoms: _548  and  _549
REMARK  233  A    between atoms: _555  and  _557
REMARK  234  A    between atoms: _557  and  _558
REMARK  235  A    between atoms: _560  and  _562
REMARK  236  A    between atoms: _562  and  _563
REMARK  237  A    between atoms: _565  and  _567
REMARK  238  A    between atoms: _567  and  _568
REMARK  239  A    between atoms: _567  and  _570
REMARK  240  A    between atoms: _570  and  _571
REMARK  241  A    between atoms: _571  and  _572
REMARK  242  A    between atoms: _577  and  _579
REMARK  243  A    between atoms: _579  and  _580
REMARK  244  A    between atoms: _579  and  _582
REMARK  245  A    between atoms: _582  and  _583
REMARK  246  A    between atoms: _585  and  _587
REMARK  247  A    between atoms: _587  and  _588
REMARK  248  A    between atoms: _587  and  _590
REMARK  249  A    between atoms: _590  and  _591
REMARK  250  A    between atoms: _593  and  _595
REMARK  251  A    between atoms: _595  and  _596
REMARK  252  A    between atoms: _598  and  _600
REMARK  253  A    between atoms: _600  and  _601
REMARK  254  A    between atoms: _600  and  _603
REMARK  255  A    between atoms: _603  and  _604
REMARK  256  A    between atoms: _607  and  _609
REMARK  257  A    between atoms: _609  and  _610
REMARK  258  A    between atoms: _612  and  _614
REMARK  259  A    between atoms: _614  and  _615
REMARK  260  A    between atoms: _614  and  _617
REMARK  261  A    between atoms: _617  and  _618
REMARK  262  A    between atoms: _621  and  _623
REMARK  263  A    between atoms: _623  and  _624
REMARK  264  A    between atoms: _623  and  _626
REMARK  265  A    between atoms: _626  and  _627
REMARK  266  A    between atoms: _632  and  _634
REMARK  267  A    between atoms: _634  and  _635
REMARK  268  A    between atoms: _634  and  _637
REMARK  269  A    between atoms: _637  and  _638
REMARK  270  A    between atoms: _641  and  _643
REMARK  271  A    between atoms: _643  and  _644
REMARK  272  A    between atoms: _643  and  _646
REMARK  273  A    between atoms: _646  and  _647
REMARK  274  A    between atoms: _653  and  _655
REMARK  275  A    between atoms: _655  and  _656
REMARK  276  A    between atoms: _658  and  _660
REMARK  277  A    between atoms: _660  and  _661
REMARK  278  A    between atoms: _660  and  _663
REMARK  279  A    between atoms: _663  and  _664
REMARK                            x       y       z     vdW  Elec       q    Type
REMARK                         _______ _______ _______ _____ _____    ______ ____
ROOT
ATOM      1  O   HOH     1      -5.790  24.272  18.341  0.00  0.00    +0.000 OA
ENDROOT
TORSDOF 0
REMARK  Name = ../refined-set-2016/4er1/4er1_pocket.pdb
REMARK  279 active torsions:
REMARK  status: ('A' for Active; 'I' for Inactive)
REMARK    1  A    between atoms: _1  and  _3
REMARK    2  A    between atoms: _3  and  _4
REMARK    3  A    between atoms: _3  and  _6
REMARK    4  A    between atoms: _6  and  _7
REMARK    5  A    between atoms: _10  and  _12
REMARK    6  A    between atoms: _12  and  _13
REMARK    7  A    between atoms: _12  and  _15
REMARK    8  A    between atoms: _15  and  _16
REMARK    9  A    between atoms: _19  and  _21
REMARK   10  A    between atoms: _21  and  _22
REMARK   11  A    between atoms: _21  and  _24
REMARK   12  A    between atoms: _24  and  _25
REMARK   13  A    between atoms: _28  and  _30
REMARK   14  A    between atoms: _30  and  _31
REMARK   15  A    between atoms: _30  and  _33
REMARK   16  A    between atoms: _33  and  _34
REMARK   17  A    between atoms: _37  and  _39
REMARK   18  A    between atoms: _39  and  _40
REMARK   19  A    between atoms: _39  and  _42
REMARK   20  A    between atoms: _42  and  _43
REMARK   21  A    between atoms: _46  and  _48
REMARK   22  A    between atoms: _48  and  _49
REMARK   23  A    between atoms: _52  and  _54
REMARK   24  A    between atoms: _54  and  _55
REMARK   25  A    between atoms: _54  and  _57
REMARK   26  A    between atoms: _57  and  _58
REMARK   27  A    between atoms: _63  and  _64
REMARK   28  A    between atoms: _66  and  _68
REMARK   29  A    between atoms: _68  and  _69
REMARK   30  A    between atoms: _68  and  _71
REMARK   31  A    between atoms: _71  and  _72
REMARK   32  A    between atoms: _75  and  _77
REMARK   33  A    between atoms: _77  and  _78
REMARK   34  A    between atoms: _77  and  _80
REMARK   35  A    between atoms: _80  and  _81
REMARK   36  A    between atoms: _87  and  _89
REMARK   37  A    between atoms: _89  and  _90
REMARK   38  A    between atoms: _89  and  _92
REMARK   39  A    between atoms: _92  and  _93
REMARK   40  A    between atoms: _96  and  _98
REMARK   41  A    between atoms: _98  and  _99
REMARK   42  A    between atoms: _98  and  _101
REMARK   43  A    between atoms: _101  and  _102
REMARK   44  A    between atoms: _105  and  _107
REMARK   45  A    between atoms: _107  and  _108
REMARK   46  A    between atoms: _110  and  _112
REMARK   47  A    between atoms: _112  and  _113
REMARK   48  A    between atoms: _112  and  _115
REMARK   49  A    between atoms: _115  and  _116
REMARK   50  A    between atoms: _118  and  _120
REMARK   51  A    between atoms: _120  and  _121
REMARK   52  A    between atoms: _120  and  _123
REMARK   53  A    between atoms: _123  and  _124
REMARK   54  A    between atoms: _126  and  _128
REMARK   55  A    between atoms: _128  and  _129
REMARK   56  A    between atoms: _128  and  _131
REMARK   57  A    between atoms: _131  and  _132
REMARK   58  A    between atoms: _135  and  _137
REMARK   59  A    between atoms: _137  and  _138
REMARK   60  A    between atoms: _137  and  _140
REMARK   61  A    between atoms: _140  and  _141
REMARK   62  A    between atoms: _151  and  _153
REMARK   63  A    between atoms: _153  and  _154
REMARK   64  A    between atoms: _153  and  _156
REMARK   65  A    between atoms: _156  and  _157
REMARK   66  A    between atoms: _159  and  _161
REMARK   67  A    between atoms: _161  and  _162
REMARK   68  A    between atoms: _161  and  _164
REMARK   69  A    between atoms: _164  and  _165
REMARK   70  A    between atoms: _168  and  _170
REMARK   71  A    between atoms: _170  and  _171
REMARK   72  A    between atoms: _170  and  _173
REMARK   73  A    between atoms: _173  and  _174
REMARK   74  A    between atoms: _176  and  _178
REMARK   75  A    between atoms: _178  and  _179
REMARK   76  A    between atoms: _178  and  _181
REMARK   77  A    between atoms: _181  and  _182
REMARK   78  A    between atoms: _187  and  _188
REMARK   79  A    between atoms: _190  and  _192
REMARK   80  A    between atoms: _192  and  _193
REMARK   81  A    between atoms: _195  and  _197
REMARK   82  A    between atoms: _197  and  _198
REMARK   83  A    between atoms: _197  and  _200
REMARK   84  A    between atoms: _200  and  _201
REMARK   85  A    between atoms: _204  and  _206
REMARK   86  A    between atoms: _206  and  _207
REMARK   87  A    between atoms: _209  and  _211
REMARK   88  A    between atoms: _211  and  _212
REMARK   89  A    between atoms: _211  and  _214
REMARK   90  A    between atoms: _214  and  _215
REMARK   91  A    between atoms: _217  and  _219
REMARK   92  A    between atoms: _219  and  _220
REMARK   93  A    between atoms: _219  and  _222
REMARK   94  A    between atoms: _222  and  _223
REMARK   95  A    between atoms: _225  and  _227
REMARK   96  A    between atoms: _227  and  _228
REMARK   97  A    between atoms: _227  and  _230
REMARK   98  A    between atoms: _230  and  _231
REMARK   99  A    between atoms: _233  and  _235
REMARK  100  A    between atoms: _235  and  _236
REMARK  101  A    between atoms: _235  and  _238
REMARK  102  A    between atoms: _238  and  _239
REMARK  103  A    between atoms: _241  and  _243
REMARK  104  A    between atoms: _243  and  _244
REMARK  105  A    between atoms: _243  and  _246
REMARK  106  A    between atoms: _246  and  _247
REMARK  107  A    between atoms: _249  and  _251
REMARK  108  A    between atoms: _251  and  _252
REMARK  109  A    between atoms: _251  and  _254
REMARK  110  A    between atoms: _254  and  _255
REMARK  111  A    between atoms: _261  and  _263
REMARK  112  A    between atoms: _263  and  _264
REMARK  113  A    between atoms: _263  and  _266
REMARK  114  A    between atoms: _266  and  _267
REMARK  115  A    between atoms: _270  and  _272
REMARK  116  A    between atoms: _272  and  _273
REMARK  117  A    between atoms: _272  and  _275
REMARK  118  A    between atoms: _275  and  _276
REMARK  119  A    between atoms: _276  and  _277
REMARK  120  A    between atoms: _280  and  _282
REMARK  121  A    between atoms: _282  and  _283
REMARK  122  A    between atoms: _282  and  _285
REMARK  123  A    between atoms: _285  and  _286
REMARK  124  A    between atoms: _289  and  _291
REMARK  125  A    between atoms: _291  and  _292
REMARK  126  A    between atoms: _291  and  _294
REMARK  127  A    between atoms: _294  and  _295
REMARK  128  A    between atoms: _297  and  _299
REMARK  129  A    between atoms: _299  and  _300
REMARK  130  A    between atoms: _299  and  _302
REMARK  131  A    between atoms: _302  and  _303
REMARK  132  A    between atoms: _306  and  _308
REMARK  133  A    between atoms: _308  and  _309
REMARK  134  A    between atoms: _308  and  _311
REMARK  135  A    between atoms: _311  and  _312
REMARK  136  A    between atoms: _315  and  _317
REMARK  137  A    between atoms: _317  and  _318
REMARK  138  A    between atoms: _320  and  _322
REMARK  139  A    between atoms: _322  and  _323
REMARK  140  A    between atoms: _322  and  _325
REMARK  141  A    between atoms: _325  and  _326
REMARK  142  A    between atoms: _329  and  _331
REMARK  143  A    between atoms: _331  and  _332
REMARK  144  A    between atoms: _331  and  _334
REMARK  145  A    between atoms: _334  and  _335
REMARK  146  A    between atoms: _338  and  _340
REMARK  147  A    between atoms: _340  and  _341
REMARK  148  A    between atoms: _340  and  _343
REMARK  149  A    between atoms: _343  and  _344
REMARK  150  A    between atoms: _347  and  _349
REMARK  151  A    between atoms: _349  and  _350
REMARK  152  A    between atoms: _353  and  _355
REMARK  153  A    between atoms: _355  and  _356
REMARK  154  A    between atoms: _355  and  _358
REMARK  155  A    between atoms: _358  and  _359
REMARK  156  A    between atoms: _362  and  _364
REMARK  157  A    between atoms: _364  and  _365
REMARK  158  A    between atoms: _364  and  _367
REMARK  159  A    between atoms: _367  and  _368
REMARK  160  A    between atoms: _371  and  _373
REMARK  161  A    between atoms: _373  and  _374
REMARK  162  A    between atoms: _373  and  _376
REMARK  163  A    between atoms: _376  and  _377
REMARK  164  A    between atoms: _382  and  _384
REMARK  165  A    between atoms: _384  and  _385
REMARK  166  A    between atoms: _384  and  _387
REMARK  167  A    between atoms: _387  and  _388
REMARK  168  A    between atoms: _391  and  _393
REMARK  169  A    between atoms: _393  and  _394
REMARK  170  A    between atoms: _393  and  _396
REMARK  171  A    between atoms: _396  and  _397
REMARK  172  A    between atoms: _397  and  _398
REMARK  173  A    between atoms: _403  and  _405
REMARK  174  A    between atoms: _405  and  _406
REMARK  175  A    between atoms: _408  and  _410
REMARK  176  A    between atoms: _410  and  _411
REMARK  177  A    between atoms: _410  and  _413
REMARK  178  A    between atoms: _413  and  _414
REMARK  179  A    between atoms: _420  and  _422
REMARK  180  A    between atoms: _422  and  _423
REMARK  181  A    between atoms: _425  and  _427
REMARK  182  A    between atoms: _427  and  _428
REMARK  183  A    between atoms: _427  and  _430
REMARK  184  A    between atoms: _430  and  _431
REMARK  185  A    between atoms: _434  and  _436
REMARK  186  A    between atoms: _436  and  _437
REMARK  187  A    between atoms: _440  and  _442
REMARK  188  A    between atoms: _442  and  _443
REMARK  189  A    between atoms: _442  and  _445
REMARK  190  A    between atoms: _445  and  _446
REMARK  191  A    between atoms: _449  and  _451
REMARK  192  A    between atoms: _451  and  _452
REMARK  193  A    between atoms: _451  and  _454
REMARK  194  A    between atoms: _454  and  _455
REMARK  195  A    between atoms: _458  and  _460
REMARK  196  A    between atoms: _460  and  _461
REMARK  197  A    between atoms: _463  and  _465
REMARK  198  A    between atoms: _465  and  _466
REMARK  199  A    between atoms: _465  and  _468
REMARK  200  A    between atoms: _468  and  _469
REMARK  201  A    between atoms: _472  and  _474
REMARK  202  A    between atoms: _474  and  _475
REMARK  203  A    between atoms: _474  and  _477
REMARK  204  A    between atoms: _477  and  _478
REMARK  205  A    between atoms: _481  and  _483
REMARK  206  A    between atoms: _483  and  _484
REMARK  207  A    between atoms: _483  and  _486
REMARK  208  A    between atoms: _486  and  _487
REMARK  209  A    between atoms: _490  and  _492
REMARK  210  A    between atoms: _492  and  _493
REMARK  211  A    between atoms: _492  and  _495
REMARK  212  A    between atoms: _495  and  _496
REMARK  213  A    between atoms: _499  and  _501
REMARK  214  A    between atoms: _501  and  _502
REMARK  215  A    between atoms: _501  and  _504
REMARK  216  A    between atoms: _504  and  _505
REMARK  217  A    between atoms: _510  and  _511
REMARK  218  A    between atoms: _513  and  _515
REMARK  219  A    between atoms: _515  and  _516
REMARK  220  A    between atoms: _515  and  _518
REMARK  221  A    between atoms: _521  and  _523
REMARK  222  A    between atoms: _523  and  _524
REMARK  223  A    between atoms: _526  and  _528
REMARK  224  A    between atoms: _528  and  _529
REMARK  225  A    between atoms: _528  and  _531
REMARK  226  A    between atoms: _531  and  _532
REMARK  227  A    between atoms: _538  and  _540
REMARK  228  A    between atoms: _540  and  _541
REMARK  229  A    between atoms: _543  and  _545
REMARK  230  A    between atoms: _545  and  _546
REMARK  231  A    between atoms: _545  and  _548
REMARK  232  A    between atoms: _548  and  _549
REMARK  233  A    between atoms: _555  and  _557
REMARK  234  A    between atoms: _557  and  _558
REMARK  235  A    between atoms: _560  and  _562
REMARK  236  A    between atoms: _562  and  _563
REMARK  237  A    between atoms: _565  and  _567
REMARK  238  A    between atoms: _567  and  _568
REMARK  239  A    between atoms: _567  and  _570
REMARK  240  A    between atoms: _570  and  _571
REMARK  241  A    between atoms: _571  and  _572
REMARK  242  A    between atoms: _577  and  _579
REMARK  243  A    between atoms: _579  and  _580
REMARK  244  A    between atoms: _579  and  _582
REMARK  245  A    between atoms: _582  and  _583
REMARK  246  A    between atoms: _585  and  _587
REMARK  247  A    between atoms: _587  and  _588
REMARK  248  A    between atoms: _587  and  _590
REMARK  249  A    between atoms: _590  and  _591
REMARK  250  A    between atoms: _593  and  _595
REMARK  251  A    between atoms: _595  and  _596
REMARK  252  A    between atoms: _598  and  _600
REMARK  253  A    between atoms: _600  and  _601
REMARK  254  A    between atoms: _600  and  _603
REMARK  255  A    between atoms: _603  and  _604
REMARK  256  A    between atoms: _607  and  _609
REMARK  257  A    between atoms: _609  and  _610
REMARK  258  A    between atoms: _612  and  _614
REMARK  259  A    between atoms: _614  and  _615
REMARK  260  A    between atoms: _614  and  _617
REMARK  261  A    between atoms: _617  and  _618
REMARK  262  A    between atoms: _621  and  _623
REMARK  263  A    between atoms: _623  and  _624
REMARK  264  A    between atoms: _623  and  _626
REMARK  265  A    between atoms: _626  and  _627
REMARK  266  A    between atoms: _632  and  _634
REMARK  267  A    between atoms: _634  and  _635
REMARK  268  A    between atoms: _634  and  _637
REMARK  269  A    between atoms: _637  and  _638
REMARK  270  A    between atoms: _641  and  _643
REMARK  271  A    between atoms: _643  and  _644
REMARK  272  A    between atoms: _643  and  _646
REMARK  273  A    between atoms: _646  and  _647
REMARK  274  A    between atoms: _653  and  _655
REMARK  275  A    between atoms: _655  and  _656
REMARK  276  A    between atoms: _658  and  _660
REMARK  277  A    between atoms: _660  and  _661
REMARK  278  A    between atoms: _660  and  _663
REMARK  279  A    between atoms: _663  and  _664
REMARK                            x       y       z     vdW  Elec       q    Type
REMARK                         _______ _______ _______ _____ _____    ______ ____
ROOT
ATOM      1  O   HOH     1      -5.203  34.484   3.898  0.00  0.00    +0.000 OA
ENDROOT
TORSDOF 0
REMARK  Name = ../refined-set-2016/4er1/4er1_pocket.pdb
REMARK  279 active torsions:
REMARK  status: ('A' for Active; 'I' for Inactive)
REMARK    1  A    between atoms: _1  and  _3
REMARK    2  A    between atoms: _3  and  _4
REMARK    3  A    between atoms: _3  and  _6
REMARK    4  A    between atoms: _6  and  _7
REMARK    5  A    between atoms: _10  and  _12
REMARK    6  A    between atoms: _12  and  _13
REMARK    7  A    between atoms: _12  and  _15
REMARK    8  A    between atoms: _15  and  _16
REMARK    9  A    between atoms: _19  and  _21
REMARK   10  A    between atoms: _21  and  _22
REMARK   11  A    between atoms: _21  and  _24
REMARK   12  A    between atoms: _24  and  _25
REMARK   13  A    between atoms: _28  and  _30
REMARK   14  A    between atoms: _30  and  _31
REMARK   15  A    between atoms: _30  and  _33
REMARK   16  A    between atoms: _33  and  _34
REMARK   17  A    between atoms: _37  and  _39
REMARK   18  A    between atoms: _39  and  _40
REMARK   19  A    between atoms: _39  and  _42
REMARK   20  A    between atoms: _42  and  _43
REMARK   21  A    between atoms: _46  and  _48
REMARK   22  A    between atoms: _48  and  _49
REMARK   23  A    between atoms: _52  and  _54
REMARK   24  A    between atoms: _54  and  _55
REMARK   25  A    between atoms: _54  and  _57
REMARK   26  A    between atoms: _57  and  _58
REMARK   27  A    between atoms: _63  and  _64
REMARK   28  A    between atoms: _66  and  _68
REMARK   29  A    between atoms: _68  and  _69
REMARK   30  A    between atoms: _68  and  _71
REMARK   31  A    between atoms: _71  and  _72
REMARK   32  A    between atoms: _75  and  _77
REMARK   33  A    between atoms: _77  and  _78
REMARK   34  A    between atoms: _77  and  _80
REMARK   35  A    between atoms: _80  and  _81
REMARK   36  A    between atoms: _87  and  _89
REMARK   37  A    between atoms: _89  and  _90
REMARK   38  A    between atoms: _89  and  _92
REMARK   39  A    between atoms: _92  and  _93
REMARK   40  A    between atoms: _96  and  _98
REMARK   41  A    between atoms: _98  and  _99
REMARK   42  A    between atoms: _98  and  _101
REMARK   43  A    between atoms: _101  and  _102
REMARK   44  A    between atoms: _105  and  _107
REMARK   45  A    between atoms: _107  and  _108
REMARK   46  A    between atoms: _110  and  _112
REMARK   47  A    between atoms: _112  and  _113
REMARK   48  A    between atoms: _112  and  _115
REMARK   49  A    between atoms: _115  and  _116
REMARK   50  A    between atoms: _118  and  _120
REMARK   51  A    between atoms: _120  and  _121
REMARK   52  A    between atoms: _120  and  _123
REMARK   53  A    between atoms: _123  and  _124
REMARK   54  A    between atoms: _126  and  _128
REMARK   55  A    between atoms: _128  and  _129
REMARK   56  A    between atoms: _128  and  _131
REMARK   57  A    between atoms: _131  and  _132
REMARK   58  A    between atoms: _135  and  _137
REMARK   59  A    between atoms: _137  and  _138
REMARK   60  A    between atoms: _137  and  _140
REMARK   61  A    between atoms: _140  and  _141
REMARK   62  A    between atoms: _151  and  _153
REMARK   63  A    between atoms: _153  and  _154
REMARK   64  A    between atoms: _153  and  _156
REMARK   65  A    between atoms: _156  and  _157
REMARK   66  A    between atoms: _159  and  _161
REMARK   67  A    between atoms: _161  and  _162
REMARK   68  A    between atoms: _161  and  _164
REMARK   69  A    between atoms: _164  and  _165
REMARK   70  A    between atoms: _168  and  _170
REMARK   71  A    between atoms: _170  and  _171
REMARK   72  A    between atoms: _170  and  _173
REMARK   73  A    between atoms: _173  and  _174
REMARK   74  A    between atoms: _176  and  _178
REMARK   75  A    between atoms: _178  and  _179
REMARK   76  A    between atoms: _178  and  _181
REMARK   77  A    between atoms: _181  and  _182
REMARK   78  A    between atoms: _187  and  _188
REMARK   79  A    between atoms: _190  and  _192
REMARK   80  A    between atoms: _192  and  _193
REMARK   81  A    between atoms: _195  and  _197
REMARK   82  A    between atoms: _197  and  _198
REMARK   83  A    between atoms: _197  and  _200
REMARK   84  A    between atoms: _200  and  _201
REMARK   85  A    between atoms: _204  and  _206
REMARK   86  A    between atoms: _206  and  _207
REMARK   87  A    between atoms: _209  and  _211
REMARK   88  A    between atoms: _211  and  _212
REMARK   89  A    between atoms: _211  and  _214
REMARK   90  A    between atoms: _214  and  _215
REMARK   91  A    between atoms: _217  and  _219
REMARK   92  A    between atoms: _219  and  _220
REMARK   93  A    between atoms: _219  and  _222
REMARK   94  A    between atoms: _222  and  _223
REMARK   95  A    between atoms: _225  and  _227
REMARK   96  A    between atoms: _227  and  _228
REMARK   97  A    between atoms: _227  and  _230
REMARK   98  A    between atoms: _230  and  _231
REMARK   99  A    between atoms: _233  and  _235
REMARK  100  A    between atoms: _235  and  _236
REMARK  101  A    between atoms: _235  and  _238
REMARK  102  A    between atoms: _238  and  _239
REMARK  103  A    between atoms: _241  and  _243
REMARK  104  A    between atoms: _243  and  _244
REMARK  105  A    between atoms: _243  and  _246
REMARK  106  A    between atoms: _246  and  _247
REMARK  107  A    between atoms: _249  and  _251
REMARK  108  A    between atoms: _251  and  _252
REMARK  109  A    between atoms: _251  and  _254
REMARK  110  A    between atoms: _254  and  _255
REMARK  111  A    between atoms: _261  and  _263
REMARK  112  A    between atoms: _263  and  _264
REMARK  113  A    between atoms: _263  and  _266
REMARK  114  A    between atoms: _266  and  _267
REMARK  115  A    between atoms: _270  and  _272
REMARK  116  A    between atoms: _272  and  _273
REMARK  117  A    between atoms: _272  and  _275
REMARK  118  A    between atoms: _275  and  _276
REMARK  119  A    between atoms: _276  and  _277
REMARK  120  A    between atoms: _280  and  _282
REMARK  121  A    between atoms: _282  and  _283
REMARK  122  A    between atoms: _282  and  _285
REMARK  123  A    between atoms: _285  and  _286
REMARK  124  A    between atoms: _289  and  _291
REMARK  125  A    between atoms: _291  and  _292
REMARK  126  A    between atoms: _291  and  _294
REMARK  127  A    between atoms: _294  and  _295
REMARK  128  A    between atoms: _297  and  _299
REMARK  129  A    between atoms: _299  and  _300
REMARK  130  A    between atoms: _299  and  _302
REMARK  131  A    between atoms: _302  and  _303
REMARK  132  A    between atoms: _306  and  _308
REMARK  133  A    between atoms: _308  and  _309
REMARK  134  A    between atoms: _308  and  _311
REMARK  135  A    between atoms: _311  and  _312
REMARK  136  A    between atoms: _315  and  _317
REMARK  137  A    between atoms: _317  and  _318
REMARK  138  A    between atoms: _320  and  _322
REMARK  139  A    between atoms: _322  and  _323
REMARK  140  A    between atoms: _322  and  _325
REMARK  141  A    between atoms: _325  and  _326
REMARK  142  A    between atoms: _329  and  _331
REMARK  143  A    between atoms: _331  and  _332
REMARK  144  A    between atoms: _331  and  _334
REMARK  145  A    between atoms: _334  and  _335
REMARK  146  A    between atoms: _338  and  _340
REMARK  147  A    between atoms: _340  and  _341
REMARK  148  A    between atoms: _340  and  _343
REMARK  149  A    between atoms: _343  and  _344
REMARK  150  A    between atoms: _347  and  _349
REMARK  151  A    between atoms: _349  and  _350
REMARK  152  A    between atoms: _353  and  _355
REMARK  153  A    between atoms: _355  and  _356
REMARK  154  A    between atoms: _355  and  _358
REMARK  155  A    between atoms: _358  and  _359
REMARK  156  A    between atoms: _362  and  _364
REMARK  157  A    between atoms: _364  and  _365
REMARK  158  A    between atoms: _364  and  _367
REMARK  159  A    between atoms: _367  and  _368
REMARK  160  A    between atoms: _371  and  _373
REMARK  161  A    between atoms: _373  and  _374
REMARK  162  A    between atoms: _373  and  _376
REMARK  163  A    between atoms: _376  and  _377
REMARK  164  A    between atoms: _382  and  _384
REMARK  165  A    between atoms: _384  and  _385
REMARK  166  A    between atoms: _384  and  _387
REMARK  167  A    between atoms: _387  and  _388
REMARK  168  A    between atoms: _391  and  _393
REMARK  169  A    between atoms: _393  and  _394
REMARK  170  A    between atoms: _393  and  _396
REMARK  171  A    between atoms: _396  and  _397
REMARK  172  A    between atoms: _397  and  _398
REMARK  173  A    between atoms: _403  and  _405
REMARK  174  A    between atoms: _405  and  _406
REMARK  175  A    between atoms: _408  and  _410
REMARK  176  A    between atoms: _410  and  _411
REMARK  177  A    between atoms: _410  and  _413
REMARK  178  A    between atoms: _413  and  _414
REMARK  179  A    between atoms: _420  and  _422
REMARK  180  A    between atoms: _422  and  _423
REMARK  181  A    between atoms: _425  and  _427
REMARK  182  A    between atoms: _427  and  _428
REMARK  183  A    between atoms: _427  and  _430
REMARK  184  A    between atoms: _430  and  _431
REMARK  185  A    between atoms: _434  and  _436
REMARK  186  A    between atoms: _436  and  _437
REMARK  187  A    between atoms: _440  and  _442
REMARK  188  A    between atoms: _442  and  _443
REMARK  189  A    between atoms: _442  and  _445
REMARK  190  A    between atoms: _445  and  _446
REMARK  191  A    between atoms: _449  and  _451
REMARK  192  A    between atoms: _451  and  _452
REMARK  193  A    between atoms: _451  and  _454
REMARK  194  A    between atoms: _454  and  _455
REMARK  195  A    between atoms: _458  and  _460
REMARK  196  A    between atoms: _460  and  _461
REMARK  197  A    between atoms: _463  and  _465
REMARK  198  A    between atoms: _465  and  _466
REMARK  199  A    between atoms: _465  and  _468
REMARK  200  A    between atoms: _468  and  _469
REMARK  201  A    between atoms: _472  and  _474
REMARK  202  A    between atoms: _474  and  _475
REMARK  203  A    between atoms: _474  and  _477
REMARK  204  A    between atoms: _477  and  _478
REMARK  205  A    between atoms: _481  and  _483
REMARK  206  A    between atoms: _483  and  _484
REMARK  207  A    between atoms: _483  and  _486
REMARK  208  A    between atoms: _486  and  _487
REMARK  209  A    between atoms: _490  and  _492
REMARK  210  A    between atoms: _492  and  _493
REMARK  211  A    between atoms: _492  and  _495
REMARK  212  A    between atoms: _495  and  _496
REMARK  213  A    between atoms: _499  and  _501
REMARK  214  A    between atoms: _501  and  _502
REMARK  215  A    between atoms: _501  and  _504
REMARK  216  A    between atoms: _504  and  _505
REMARK  217  A    between atoms: _510  and  _511
REMARK  218  A    between atoms: _513  and  _515
REMARK  219  A    between atoms: _515  and  _516
REMARK  220  A    between atoms: _515  and  _518
REMARK  221  A    between atoms: _521  and  _523
REMARK  222  A    between atoms: _523  and  _524
REMARK  223  A    between atoms: _526  and  _528
REMARK  224  A    between atoms: _528  and  _529
REMARK  225  A    between atoms: _528  and  _531
REMARK  226  A    between atoms: _531  and  _532
REMARK  227  A    between atoms: _538  and  _540
REMARK  228  A    between atoms: _540  and  _541
REMARK  229  A    between atoms: _543  and  _545
REMARK  230  A    between atoms: _545  and  _546
REMARK  231  A    between atoms: _545  and  _548
REMARK  232  A    between atoms: _548  and  _549
REMARK  233  A    between atoms: _555  and  _557
REMARK  234  A    between atoms: _557  and  _558
REMARK  235  A    between atoms: _560  and  _562
REMARK  236  A    between atoms: _562  and  _563
REMARK  237  A    between atoms: _565  and  _567
REMARK  238  A    between atoms: _567  and  _568
REMARK  239  A    between atoms: _567  and  _570
REMARK  240  A    between atoms: _570  and  _571
REMARK  241  A    between atoms: _571  and  _572
REMARK  242  A    between atoms: _577  and  _579
REMARK  243  A    between atoms: _579  and  _580
REMARK  244  A    between atoms: _579  and  _582
REMARK  245  A    between atoms: _582  and  _583
REMARK  246  A    between atoms: _585  and  _587
REMARK  247  A    between atoms: _587  and  _588
REMARK  248  A    between atoms: _587  and  _590
REMARK  249  A    between atoms: _590  and  _591
REMARK  250  A    between atoms: _593  and  _595
REMARK  251  A    between atoms: _595  and  _596
REMARK  252  A    between atoms: _598  and  _600
REMARK  253  A    between atoms: _600  and  _601
REMARK  254  A    between atoms: _600  and  _603
REMARK  255  A    between atoms: _603  and  _604
REMARK  256  A    between atoms: _607  and  _609
REMARK  257  A    between atoms: _609  and  _610
REMARK  258  A    between atoms: _612  and  _614
REMARK  259  A    between atoms: _614  and  _615
REMARK  260  A    between atoms: _614  and  _617
REMARK  261  A    between atoms: _617  and  _618
REMARK  262  A    between atoms: _621  and  _623
REMARK  263  A    between atoms: _623  and  _624
REMARK  264  A    between atoms: _623  and  _626
REMARK  265  A    between atoms: _626  and  _627
REMARK  266  A    between atoms: _632  and  _634
REMARK  267  A    between atoms: _634  and  _635
REMARK  268  A    between atoms: _634  and  _637
REMARK  269  A    between atoms: _637  and  _638
REMARK  270  A    between atoms: _641  and  _643
REMARK  271  A    between atoms: _643  and  _644
REMARK  272  A    between atoms: _643  and  _646
REMARK  273  A    between atoms: _646  and  _647
REMARK  274  A    between atoms: _653  and  _655
REMARK  275  A    between atoms: _655  and  _656
REMARK  276  A    between atoms: _658  and  _660
REMARK  277  A    between atoms: _660  and  _661
REMARK  278  A    between atoms: _660  and  _663
REMARK  279  A    between atoms: _663  and  _664
REMARK                            x       y       z     vdW  Elec       q    Type
REMARK                         _______ _______ _______ _____ _____    ______ ____
ROOT
ATOM      1  O   HOH     1      10.151  24.120  24.548  0.00  0.00    +0.000 OA
ENDROOT
TORSDOF 0
REMARK  Name = ../refined-set-2016/4er1/4er1_pocket.pdb
REMARK  279 active torsions:
REMARK  status: ('A' for Active; 'I' for Inactive)
REMARK    1  A    between atoms: _1  and  _3
REMARK    2  A    between atoms: _3  and  _4
REMARK    3  A    between atoms: _3  and  _6
REMARK    4  A    between atoms: _6  and  _7
REMARK    5  A    between atoms: _10  and  _12
REMARK    6  A    between atoms: _12  and  _13
REMARK    7  A    between atoms: _12  and  _15
REMARK    8  A    between atoms: _15  and  _16
REMARK    9  A    between atoms: _19  and  _21
REMARK   10  A    between atoms: _21  and  _22
REMARK   11  A    between atoms: _21  and  _24
REMARK   12  A    between atoms: _24  and  _25
REMARK   13  A    between atoms: _28  and  _30
REMARK   14  A    between atoms: _30  and  _31
REMARK   15  A    between atoms: _30  and  _33
REMARK   16  A    between atoms: _33  and  _34
REMARK   17  A    between atoms: _37  and  _39
REMARK   18  A    between atoms: _39  and  _40
REMARK   19  A    between atoms: _39  and  _42
REMARK   20  A    between atoms: _42  and  _43
REMARK   21  A    between atoms: _46  and  _48
REMARK   22  A    between atoms: _48  and  _49
REMARK   23  A    between atoms: _52  and  _54
REMARK   24  A    between atoms: _54  and  _55
REMARK   25  A    between atoms: _54  and  _57
REMARK   26  A    between atoms: _57  and  _58
REMARK   27  A    between atoms: _63  and  _64
REMARK   28  A    between atoms: _66  and  _68
REMARK   29  A    between atoms: _68  and  _69
REMARK   30  A    between atoms: _68  and  _71
REMARK   31  A    between atoms: _71  and  _72
REMARK   32  A    between atoms: _75  and  _77
REMARK   33  A    between atoms: _77  and  _78
REMARK   34  A    between atoms: _77  and  _80
REMARK   35  A    between atoms: _80  and  _81
REMARK   36  A    between atoms: _87  and  _89
REMARK   37  A    between atoms: _89  and  _90
REMARK   38  A    between atoms: _89  and  _92
REMARK   39  A    between atoms: _92  and  _93
REMARK   40  A    between atoms: _96  and  _98
REMARK   41  A    between atoms: _98  and  _99
REMARK   42  A    between atoms: _98  and  _101
REMARK   43  A    between atoms: _101  and  _102
REMARK   44  A    between atoms: _105  and  _107
REMARK   45  A    between atoms: _107  and  _108
REMARK   46  A    between atoms: _110  and  _112
REMARK   47  A    between atoms: _112  and  _113
REMARK   48  A    between atoms: _112  and  _115
REMARK   49  A    between atoms: _115  and  _116
REMARK   50  A    between atoms: _118  and  _120
REMARK   51  A    between atoms: _120  and  _121
REMARK   52  A    between atoms: _120  and  _123
REMARK   53  A    between atoms: _123  and  _124
REMARK   54  A    between atoms: _126  and  _128
REMARK   55  A    between atoms: _128  and  _129
REMARK   56  A    between atoms: _128  and  _131
REMARK   57  A    between atoms: _131  and  _132
REMARK   58  A    between atoms: _135  and  _137
REMARK   59  A    between atoms: _137  and  _138
REMARK   60  A    between atoms: _137  and  _140
REMARK   61  A    between atoms: _140  and  _141
REMARK   62  A    between atoms: _151  and  _153
REMARK   63  A    between atoms: _153  and  _154
REMARK   64  A    between atoms: _153  and  _156
REMARK   65  A    between atoms: _156  and  _157
REMARK   66  A    between atoms: _159  and  _161
REMARK   67  A    between atoms: _161  and  _162
REMARK   68  A    between atoms: _161  and  _164
REMARK   69  A    between atoms: _164  and  _165
REMARK   70  A    between atoms: _168  and  _170
REMARK   71  A    between atoms: _170  and  _171
REMARK   72  A    between atoms: _170  and  _173
REMARK   73  A    between atoms: _173  and  _174
REMARK   74  A    between atoms: _176  and  _178
REMARK   75  A    between atoms: _178  and  _179
REMARK   76  A    between atoms: _178  and  _181
REMARK   77  A    between atoms: _181  and  _182
REMARK   78  A    between atoms: _187  and  _188
REMARK   79  A    between atoms: _190  and  _192
REMARK   80  A    between atoms: _192  and  _193
REMARK   81  A    between atoms: _195  and  _197
REMARK   82  A    between atoms: _197  and  _198
REMARK   83  A    between atoms: _197  and  _200
REMARK   84  A    between atoms: _200  and  _201
REMARK   85  A    between atoms: _204  and  _206
REMARK   86  A    between atoms: _206  and  _207
REMARK   87  A    between atoms: _209  and  _211
REMARK   88  A    between atoms: _211  and  _212
REMARK   89  A    between atoms: _211  and  _214
REMARK   90  A    between atoms: _214  and  _215
REMARK   91  A    between atoms: _217  and  _219
REMARK   92  A    between atoms: _219  and  _220
REMARK   93  A    between atoms: _219  and  _222
REMARK   94  A    between atoms: _222  and  _223
REMARK   95  A    between atoms: _225  and  _227
REMARK   96  A    between atoms: _227  and  _228
REMARK   97  A    between atoms: _227  and  _230
REMARK   98  A    between atoms: _230  and  _231
REMARK   99  A    between atoms: _233  and  _235
REMARK  100  A    between atoms: _235  and  _236
REMARK  101  A    between atoms: _235  and  _238
REMARK  102  A    between atoms: _238  and  _239
REMARK  103  A    between atoms: _241  and  _243
REMARK  104  A    between atoms: _243  and  _244
REMARK  105  A    between atoms: _243  and  _246
REMARK  106  A    between atoms: _246  and  _247
REMARK  107  A    between atoms: _249  and  _251
REMARK  108  A    between atoms: _251  and  _252
REMARK  109  A    between atoms: _251  and  _254
REMARK  110  A    between atoms: _254  and  _255
REMARK  111  A    between atoms: _261  and  _263
REMARK  112  A    between atoms: _263  and  _264
REMARK  113  A    between atoms: _263  and  _266
REMARK  114  A    between atoms: _266  and  _267
REMARK  115  A    between atoms: _270  and  _272
REMARK  116  A    between atoms: _272  and  _273
REMARK  117  A    between atoms: _272  and  _275
REMARK  118  A    between atoms: _275  and  _276
REMARK  119  A    between atoms: _276  and  _277
REMARK  120  A    between atoms: _280  and  _282
REMARK  121  A    between atoms: _282  and  _283
REMARK  122  A    between atoms: _282  and  _285
REMARK  123  A    between atoms: _285  and  _286
REMARK  124  A    between atoms: _289  and  _291
REMARK  125  A    between atoms: _291  and  _292
REMARK  126  A    between atoms: _291  and  _294
REMARK  127  A    between atoms: _294  and  _295
REMARK  128  A    between atoms: _297  and  _299
REMARK  129  A    between atoms: _299  and  _300
REMARK  130  A    between atoms: _299  and  _302
REMARK  131  A    between atoms: _302  and  _303
REMARK  132  A    between atoms: _306  and  _308
REMARK  133  A    between atoms: _308  and  _309
REMARK  134  A    between atoms: _308  and  _311
REMARK  135  A    between atoms: _311  and  _312
REMARK  136  A    between atoms: _315  and  _317
REMARK  137  A    between atoms: _317  and  _318
REMARK  138  A    between atoms: _320  and  _322
REMARK  139  A    between atoms: _322  and  _323
REMARK  140  A    between atoms: _322  and  _325
REMARK  141  A    between atoms: _325  and  _326
REMARK  142  A    between atoms: _329  and  _331
REMARK  143  A    between atoms: _331  and  _332
REMARK  144  A    between atoms: _331  and  _334
REMARK  145  A    between atoms: _334  and  _335
REMARK  146  A    between atoms: _338  and  _340
REMARK  147  A    between atoms: _340  and  _341
REMARK  148  A    between atoms: _340  and  _343
REMARK  149  A    between atoms: _343  and  _344
REMARK  150  A    between atoms: _347  and  _349
REMARK  151  A    between atoms: _349  and  _350
REMARK  152  A    between atoms: _353  and  _355
REMARK  153  A    between atoms: _355  and  _356
REMARK  154  A    between atoms: _355  and  _358
REMARK  155  A    between atoms: _358  and  _359
REMARK  156  A    between atoms: _362  and  _364
REMARK  157  A    between atoms: _364  and  _365
REMARK  158  A    between atoms: _364  and  _367
REMARK  159  A    between atoms: _367  and  _368
REMARK  160  A    between atoms: _371  and  _373
REMARK  161  A    between atoms: _373  and  _374
REMARK  162  A    between atoms: _373  and  _376
REMARK  163  A    between atoms: _376  and  _377
REMARK  164  A    between atoms: _382  and  _384
REMARK  165  A    between atoms: _384  and  _385
REMARK  166  A    between atoms: _384  and  _387
REMARK  167  A    between atoms: _387  and  _388
REMARK  168  A    between atoms: _391  and  _393
REMARK  169  A    between atoms: _393  and  _394
REMARK  170  A    between atoms: _393  and  _396
REMARK  171  A    between atoms: _396  and  _397
REMARK  172  A    between atoms: _397  and  _398
REMARK  173  A    between atoms: _403  and  _405
REMARK  174  A    between atoms: _405  and  _406
REMARK  175  A    between atoms: _408  and  _410
REMARK  176  A    between atoms: _410  and  _411
REMARK  177  A    between atoms: _410  and  _413
REMARK  178  A    between atoms: _413  and  _414
REMARK  179  A    between atoms: _420  and  _422
REMARK  180  A    between atoms: _422  and  _423
REMARK  181  A    between atoms: _425  and  _427
REMARK  182  A    between atoms: _427  and  _428
REMARK  183  A    between atoms: _427  and  _430
REMARK  184  A    between atoms: _430  and  _431
REMARK  185  A    between atoms: _434  and  _436
REMARK  186  A    between atoms: _436  and  _437
REMARK  187  A    between atoms: _440  and  _442
REMARK  188  A    between atoms: _442  and  _443
REMARK  189  A    between atoms: _442  and  _445
REMARK  190  A    between atoms: _445  and  _446
REMARK  191  A    between atoms: _449  and  _451
REMARK  192  A    between atoms: _451  and  _452
REMARK  193  A    between atoms: _451  and  _454
REMARK  194  A    between atoms: _454  and  _455
REMARK  195  A    between atoms: _458  and  _460
REMARK  196  A    between atoms: _460  and  _461
REMARK  197  A    between atoms: _463  and  _465
REMARK  198  A    between atoms: _465  and  _466
REMARK  199  A    between atoms: _465  and  _468
REMARK  200  A    between atoms: _468  and  _469
REMARK  201  A    between atoms: _472  and  _474
REMARK  202  A    between atoms: _474  and  _475
REMARK  203  A    between atoms: _474  and  _477
REMARK  204  A    between atoms: _477  and  _478
REMARK  205  A    between atoms: _481  and  _483
REMARK  206  A    between atoms: _483  and  _484
REMARK  207  A    between atoms: _483  and  _486
REMARK  208  A    between atoms: _486  and  _487
REMARK  209  A    between atoms: _490  and  _492
REMARK  210  A    between atoms: _492  and  _493
REMARK  211  A    between atoms: _492  and  _495
REMARK  212  A    between atoms: _495  and  _496
REMARK  213  A    between atoms: _499  and  _501
REMARK  214  A    between atoms: _501  and  _502
REMARK  215  A    between atoms: _501  and  _504
REMARK  216  A    between atoms: _504  and  _505
REMARK  217  A    between atoms: _510  and  _511
REMARK  218  A    between atoms: _513  and  _515
REMARK  219  A    between atoms: _515  and  _516
REMARK  220  A    between atoms: _515  and  _518
REMARK  221  A    between atoms: _521  and  _523
REMARK  222  A    between atoms: _523  and  _524
REMARK  223  A    between atoms: _526  and  _528
REMARK  224  A    between atoms: _528  and  _529
REMARK  225  A    between atoms: _528  and  _531
REMARK  226  A    between atoms: _531  and  _532
REMARK  227  A    between atoms: _538  and  _540
REMARK  228  A    between atoms: _540  and  _541
REMARK  229  A    between atoms: _543  and  _545
REMARK  230  A    between atoms: _545  and  _546
REMARK  231  A    between atoms: _545  and  _548
REMARK  232  A    between atoms: _548  and  _549
REMARK  233  A    between atoms: _555  and  _557
REMARK  234  A    between atoms: _557  and  _558
REMARK  235  A    between atoms: _560  and  _562
REMARK  236  A    between atoms: _562  and  _563
REMARK  237  A    between atoms: _565  and  _567
REMARK  238  A    between atoms: _567  and  _568
REMARK  239  A    between atoms: _567  and  _570
REMARK  240  A    between atoms: _570  and  _571
REMARK  241  A    between atoms: _571  and  _572
REMARK  242  A    between atoms: _577  and  _579
REMARK  243  A    between atoms: _579  and  _580
REMARK  244  A    between atoms: _579  and  _582
REMARK  245  A    between atoms: _582  and  _583
REMARK  246  A    between atoms: _585  and  _587
REMARK  247  A    between atoms: _587  and  _588
REMARK  248  A    between atoms: _587  and  _590
REMARK  249  A    between atoms: _590  and  _591
REMARK  250  A    between atoms: _593  and  _595
REMARK  251  A    between atoms: _595  and  _596
REMARK  252  A    between atoms: _598  and  _600
REMARK  253  A    between atoms: _600  and  _601
REMARK  254  A    between atoms: _600  and  _603
REMARK  255  A    between atoms: _603  and  _604
REMARK  256  A    between atoms: _607  and  _609
REMARK  257  A    between atoms: _609  and  _610
REMARK  258  A    between atoms: _612  and  _614
REMARK  259  A    between atoms: _614  and  _615
REMARK  260  A    between atoms: _614  and  _617
REMARK  261  A    between atoms: _617  and  _618
REMARK  262  A    between atoms: _621  and  _623
REMARK  263  A    between atoms: _623  and  _624
REMARK  264  A    between atoms: _623  and  _626
REMARK  265  A    between atoms: _626  and  _627
REMARK  266  A    between atoms: _632  and  _634
REMARK  267  A    between atoms: _634  and  _635
REMARK  268  A    between atoms: _634  and  _637
REMARK  269  A    between atoms: _637  and  _638
REMARK  270  A    between atoms: _641  and  _643
REMARK  271  A    between atoms: _643  and  _644
REMARK  272  A    between atoms: _643  and  _646
REMARK  273  A    between atoms: _646  and  _647
REMARK  274  A    between atoms: _653  and  _655
REMARK  275  A    between atoms: _655  and  _656
REMARK  276  A    between atoms: _658  and  _660
REMARK  277  A    between atoms: _660  and  _661
REMARK  278  A    between atoms: _660  and  _663
REMARK  279  A    between atoms: _663  and  _664
REMARK                            x       y       z     vdW  Elec       q    Type
REMARK                         _______ _______ _______ _____ _____    ______ ____
ROOT
ATOM      1  O   HOH     1       3.986  35.942  26.355  0.00  0.00    +0.000 OA
ENDROOT
TORSDOF 0
REMARK  Name = ../refined-set-2016/4er1/4er1_pocket.pdb
REMARK  279 active torsions:
REMARK  status: ('A' for Active; 'I' for Inactive)
REMARK    1  A    between atoms: _1  and  _3
REMARK    2  A    between atoms: _3  and  _4
REMARK    3  A    between atoms: _3  and  _6
REMARK    4  A    between atoms: _6  and  _7
REMARK    5  A    between atoms: _10  and  _12
REMARK    6  A    between atoms: _12  and  _13
REMARK    7  A    between atoms: _12  and  _15
REMARK    8  A    between atoms: _15  and  _16
REMARK    9  A    between atoms: _19  and  _21
REMARK   10  A    between atoms: _21  and  _22
REMARK   11  A    between atoms: _21  and  _24
REMARK   12  A    between atoms: _24  and  _25
REMARK   13  A    between atoms: _28  and  _30
REMARK   14  A    between atoms: _30  and  _31
REMARK   15  A    between atoms: _30  and  _33
REMARK   16  A    between atoms: _33  and  _34
REMARK   17  A    between atoms: _37  and  _39
REMARK   18  A    between atoms: _39  and  _40
REMARK   19  A    between atoms: _39  and  _42
REMARK   20  A    between atoms: _42  and  _43
REMARK   21  A    between atoms: _46  and  _48
REMARK   22  A    between atoms: _48  and  _49
REMARK   23  A    between atoms: _52  and  _54
REMARK   24  A    between atoms: _54  and  _55
REMARK   25  A    between atoms: _54  and  _57
REMARK   26  A    between atoms: _57  and  _58
REMARK   27  A    between atoms: _63  and  _64
REMARK   28  A    between atoms: _66  and  _68
REMARK   29  A    between atoms: _68  and  _69
REMARK   30  A    between atoms: _68  and  _71
REMARK   31  A    between atoms: _71  and  _72
REMARK   32  A    between atoms: _75  and  _77
REMARK   33  A    between atoms: _77  and  _78
REMARK   34  A    between atoms: _77  and  _80
REMARK   35  A    between atoms: _80  and  _81
REMARK   36  A    between atoms: _87  and  _89
REMARK   37  A    between atoms: _89  and  _90
REMARK   38  A    between atoms: _89  and  _92
REMARK   39  A    between atoms: _92  and  _93
REMARK   40  A    between atoms: _96  and  _98
REMARK   41  A    between atoms: _98  and  _99
REMARK   42  A    between atoms: _98  and  _101
REMARK   43  A    between atoms: _101  and  _102
REMARK   44  A    between atoms: _105  and  _107
REMARK   45  A    between atoms: _107  and  _108
REMARK   46  A    between atoms: _110  and  _112
REMARK   47  A    between atoms: _112  and  _113
REMARK   48  A    between atoms: _112  and  _115
REMARK   49  A    between atoms: _115  and  _116
REMARK   50  A    between atoms: _118  and  _120
REMARK   51  A    between atoms: _120  and  _121
REMARK   52  A    between atoms: _120  and  _123
REMARK   53  A    between atoms: _123  and  _124
REMARK   54  A    between atoms: _126  and  _128
REMARK   55  A    between atoms: _128  and  _129
REMARK   56  A    between atoms: _128  and  _131
REMARK   57  A    between atoms: _131  and  _132
REMARK   58  A    between atoms: _135  and  _137
REMARK   59  A    between atoms: _137  and  _138
REMARK   60  A    between atoms: _137  and  _140
REMARK   61  A    between atoms: _140  and  _141
REMARK   62  A    between atoms: _151  and  _153
REMARK   63  A    between atoms: _153  and  _154
REMARK   64  A    between atoms: _153  and  _156
REMARK   65  A    between atoms: _156  and  _157
REMARK   66  A    between atoms: _159  and  _161
REMARK   67  A    between atoms: _161  and  _162
REMARK   68  A    between atoms: _161  and  _164
REMARK   69  A    between atoms: _164  and  _165
REMARK   70  A    between atoms: _168  and  _170
REMARK   71  A    between atoms: _170  and  _171
REMARK   72  A    between atoms: _170  and  _173
REMARK   73  A    between atoms: _173  and  _174
REMARK   74  A    between atoms: _176  and  _178
REMARK   75  A    between atoms: _178  and  _179
REMARK   76  A    between atoms: _178  and  _181
REMARK   77  A    between atoms: _181  and  _182
REMARK   78  A    between atoms: _187  and  _188
REMARK   79  A    between atoms: _190  and  _192
REMARK   80  A    between atoms: _192  and  _193
REMARK   81  A    between atoms: _195  and  _197
REMARK   82  A    between atoms: _197  and  _198
REMARK   83  A    between atoms: _197  and  _200
REMARK   84  A    between atoms: _200  and  _201
REMARK   85  A    between atoms: _204  and  _206
REMARK   86  A    between atoms: _206  and  _207
REMARK   87  A    between atoms: _209  and  _211
REMARK   88  A    between atoms: _211  and  _212
REMARK   89  A    between atoms: _211  and  _214
REMARK   90  A    between atoms: _214  and  _215
REMARK   91  A    between atoms: _217  and  _219
REMARK   92  A    between atoms: _219  and  _220
REMARK   93  A    between atoms: _219  and  _222
REMARK   94  A    between atoms: _222  and  _223
REMARK   95  A    between atoms: _225  and  _227
REMARK   96  A    between atoms: _227  and  _228
REMARK   97  A    between atoms: _227  and  _230
REMARK   98  A    between atoms: _230  and  _231
REMARK   99  A    between atoms: _233  and  _235
REMARK  100  A    between atoms: _235  and  _236
REMARK  101  A    between atoms: _235  and  _238
REMARK  102  A    between atoms: _238  and  _239
REMARK  103  A    between atoms: _241  and  _243
REMARK  104  A    between atoms: _243  and  _244
REMARK  105  A    between atoms: _243  and  _246
REMARK  106  A    between atoms: _246  and  _247
REMARK  107  A    between atoms: _249  and  _251
REMARK  108  A    between atoms: _251  and  _252
REMARK  109  A    between atoms: _251  and  _254
REMARK  110  A    between atoms: _254  and  _255
REMARK  111  A    between atoms: _261  and  _263
REMARK  112  A    between atoms: _263  and  _264
REMARK  113  A    between atoms: _263  and  _266
REMARK  114  A    between atoms: _266  and  _267
REMARK  115  A    between atoms: _270  and  _272
REMARK  116  A    between atoms: _272  and  _273
REMARK  117  A    between atoms: _272  and  _275
REMARK  118  A    between atoms: _275  and  _276
REMARK  119  A    between atoms: _276  and  _277
REMARK  120  A    between atoms: _280  and  _282
REMARK  121  A    between atoms: _282  and  _283
REMARK  122  A    between atoms: _282  and  _285
REMARK  123  A    between atoms: _285  and  _286
REMARK  124  A    between atoms: _289  and  _291
REMARK  125  A    between atoms: _291  and  _292
REMARK  126  A    between atoms: _291  and  _294
REMARK  127  A    between atoms: _294  and  _295
REMARK  128  A    between atoms: _297  and  _299
REMARK  129  A    between atoms: _299  and  _300
REMARK  130  A    between atoms: _299  and  _302
REMARK  131  A    between atoms: _302  and  _303
REMARK  132  A    between atoms: _306  and  _308
REMARK  133  A    between atoms: _308  and  _309
REMARK  134  A    between atoms: _308  and  _311
REMARK  135  A    between atoms: _311  and  _312
REMARK  136  A    between atoms: _315  and  _317
REMARK  137  A    between atoms: _317  and  _318
REMARK  138  A    between atoms: _320  and  _322
REMARK  139  A    between atoms: _322  and  _323
REMARK  140  A    between atoms: _322  and  _325
REMARK  141  A    between atoms: _325  and  _326
REMARK  142  A    between atoms: _329  and  _331
REMARK  143  A    between atoms: _331  and  _332
REMARK  144  A    between atoms: _331  and  _334
REMARK  145  A    between atoms: _334  and  _335
REMARK  146  A    between atoms: _338  and  _340
REMARK  147  A    between atoms: _340  and  _341
REMARK  148  A    between atoms: _340  and  _343
REMARK  149  A    between atoms: _343  and  _344
REMARK  150  A    between atoms: _347  and  _349
REMARK  151  A    between atoms: _349  and  _350
REMARK  152  A    between atoms: _353  and  _355
REMARK  153  A    between atoms: _355  and  _356
REMARK  154  A    between atoms: _355  and  _358
REMARK  155  A    between atoms: _358  and  _359
REMARK  156  A    between atoms: _362  and  _364
REMARK  157  A    between atoms: _364  and  _365
REMARK  158  A    between atoms: _364  and  _367
REMARK  159  A    between atoms: _367  and  _368
REMARK  160  A    between atoms: _371  and  _373
REMARK  161  A    between atoms: _373  and  _374
REMARK  162  A    between atoms: _373  and  _376
REMARK  163  A    between atoms: _376  and  _377
REMARK  164  A    between atoms: _382  and  _384
REMARK  165  A    between atoms: _384  and  _385
REMARK  166  A    between atoms: _384  and  _387
REMARK  167  A    between atoms: _387  and  _388
REMARK  168  A    between atoms: _391  and  _393
REMARK  169  A    between atoms: _393  and  _394
REMARK  170  A    between atoms: _393  and  _396
REMARK  171  A    between atoms: _396  and  _397
REMARK  172  A    between atoms: _397  and  _398
REMARK  173  A    between atoms: _403  and  _405
REMARK  174  A    between atoms: _405  and  _406
REMARK  175  A    between atoms: _408  and  _410
REMARK  176  A    between atoms: _410  and  _411
REMARK  177  A    between atoms: _410  and  _413
REMARK  178  A    between atoms: _413  and  _414
REMARK  179  A    between atoms: _420  and  _422
REMARK  180  A    between atoms: _422  and  _423
REMARK  181  A    between atoms: _425  and  _427
REMARK  182  A    between atoms: _427  and  _428
REMARK  183  A    between atoms: _427  and  _430
REMARK  184  A    between atoms: _430  and  _431
REMARK  185  A    between atoms: _434  and  _436
REMARK  186  A    between atoms: _436  and  _437
REMARK  187  A    between atoms: _440  and  _442
REMARK  188  A    between atoms: _442  and  _443
REMARK  189  A    between atoms: _442  and  _445
REMARK  190  A    between atoms: _445  and  _446
REMARK  191  A    between atoms: _449  and  _451
REMARK  192  A    between atoms: _451  and  _452
REMARK  193  A    between atoms: _451  and  _454
REMARK  194  A    between atoms: _454  and  _455
REMARK  195  A    between atoms: _458  and  _460
REMARK  196  A    between atoms: _460  and  _461
REMARK  197  A    between atoms: _463  and  _465
REMARK  198  A    between atoms: _465  and  _466
REMARK  199  A    between atoms: _465  and  _468
REMARK  200  A    between atoms: _468  and  _469
REMARK  201  A    between atoms: _472  and  _474
REMARK  202  A    between atoms: _474  and  _475
REMARK  203  A    between atoms: _474  and  _477
REMARK  204  A    between atoms: _477  and  _478
REMARK  205  A    between atoms: _481  and  _483
REMARK  206  A    between atoms: _483  and  _484
REMARK  207  A    between atoms: _483  and  _486
REMARK  208  A    between atoms: _486  and  _487
REMARK  209  A    between atoms: _490  and  _492
REMARK  210  A    between atoms: _492  and  _493
REMARK  211  A    between atoms: _492  and  _495
REMARK  212  A    between atoms: _495  and  _496
REMARK  213  A    between atoms: _499  and  _501
REMARK  214  A    between atoms: _501  and  _502
REMARK  215  A    between atoms: _501  and  _504
REMARK  216  A    between atoms: _504  and  _505
REMARK  217  A    between atoms: _510  and  _511
REMARK  218  A    between atoms: _513  and  _515
REMARK  219  A    between atoms: _515  and  _516
REMARK  220  A    between atoms: _515  and  _518
REMARK  221  A    between atoms: _521  and  _523
REMARK  222  A    between atoms: _523  and  _524
REMARK  223  A    between atoms: _526  and  _528
REMARK  224  A    between atoms: _528  and  _529
REMARK  225  A    between atoms: _528  and  _531
REMARK  226  A    between atoms: _531  and  _532
REMARK  227  A    between atoms: _538  and  _540
REMARK  228  A    between atoms: _540  and  _541
REMARK  229  A    between atoms: _543  and  _545
REMARK  230  A    between atoms: _545  and  _546
REMARK  231  A    between atoms: _545  and  _548
REMARK  232  A    between atoms: _548  and  _549
REMARK  233  A    between atoms: _555  and  _557
REMARK  234  A    between atoms: _557  and  _558
REMARK  235  A    between atoms: _560  and  _562
REMARK  236  A    between atoms: _562  and  _563
REMARK  237  A    between atoms: _565  and  _567
REMARK  238  A    between atoms: _567  and  _568
REMARK  239  A    between atoms: _567  and  _570
REMARK  240  A    between atoms: _570  and  _571
REMARK  241  A    between atoms: _571  and  _572
REMARK  242  A    between atoms: _577  and  _579
REMARK  243  A    between atoms: _579  and  _580
REMARK  244  A    between atoms: _579  and  _582
REMARK  245  A    between atoms: _582  and  _583
REMARK  246  A    between atoms: _585  and  _587
REMARK  247  A    between atoms: _587  and  _588
REMARK  248  A    between atoms: _587  and  _590
REMARK  249  A    between atoms: _590  and  _591
REMARK  250  A    between atoms: _593  and  _595
REMARK  251  A    between atoms: _595  and  _596
REMARK  252  A    between atoms: _598  and  _600
REMARK  253  A    between atoms: _600  and  _601
REMARK  254  A    between atoms: _600  and  _603
REMARK  255  A    between atoms: _603  and  _604
REMARK  256  A    between atoms: _607  and  _609
REMARK  257  A    between atoms: _609  and  _610
REMARK  258  A    between atoms: _612  and  _614
REMARK  259  A    between atoms: _614  and  _615
REMARK  260  A    between atoms: _614  and  _617
REMARK  261  A    between atoms: _617  and  _618
REMARK  262  A    between atoms: _621  and  _623
REMARK  263  A    between atoms: _623  and  _624
REMARK  264  A    between atoms: _623  and  _626
REMARK  265  A    between atoms: _626  and  _627
REMARK  266  A    between atoms: _632  and  _634
REMARK  267  A    between atoms: _634  and  _635
REMARK  268  A    between atoms: _634  and  _637
REMARK  269  A    between atoms: _637  and  _638
REMARK  270  A    between atoms: _641  and  _643
REMARK  271  A    between atoms: _643  and  _644
REMARK  272  A    between atoms: _643  and  _646
REMARK  273  A    between atoms: _646  and  _647
REMARK  274  A    between atoms: _653  and  _655
REMARK  275  A    between atoms: _655  and  _656
REMARK  276  A    between atoms: _658  and  _660
REMARK  277  A    between atoms: _660  and  _661
REMARK  278  A    between atoms: _660  and  _663
REMARK  279  A    between atoms: _663  and  _664
REMARK                            x       y       z     vdW  Elec       q    Type
REMARK                         _______ _______ _______ _____ _____    ______ ____
ROOT
ATOM      1  O   HOH     1      -0.752  39.599  18.551  0.00  0.00    +0.000 OA
ENDROOT
TORSDOF 0
REMARK  Name = ../refined-set-2016/4er1/4er1_pocket.pdb
REMARK  279 active torsions:
REMARK  status: ('A' for Active; 'I' for Inactive)
REMARK    1  A    between atoms: _1  and  _3
REMARK    2  A    between atoms: _3  and  _4
REMARK    3  A    between atoms: _3  and  _6
REMARK    4  A    between atoms: _6  and  _7
REMARK    5  A    between atoms: _10  and  _12
REMARK    6  A    between atoms: _12  and  _13
REMARK    7  A    between atoms: _12  and  _15
REMARK    8  A    between atoms: _15  and  _16
REMARK    9  A    between atoms: _19  and  _21
REMARK   10  A    between atoms: _21  and  _22
REMARK   11  A    between atoms: _21  and  _24
REMARK   12  A    between atoms: _24  and  _25
REMARK   13  A    between atoms: _28  and  _30
REMARK   14  A    between atoms: _30  and  _31
REMARK   15  A    between atoms: _30  and  _33
REMARK   16  A    between atoms: _33  and  _34
REMARK   17  A    between atoms: _37  and  _39
REMARK   18  A    between atoms: _39  and  _40
REMARK   19  A    between atoms: _39  and  _42
REMARK   20  A    between atoms: _42  and  _43
REMARK   21  A    between atoms: _46  and  _48
REMARK   22  A    between atoms: _48  and  _49
REMARK   23  A    between atoms: _52  and  _54
REMARK   24  A    between atoms: _54  and  _55
REMARK   25  A    between atoms: _54  and  _57
REMARK   26  A    between atoms: _57  and  _58
REMARK   27  A    between atoms: _63  and  _64
REMARK   28  A    between atoms: _66  and  _68
REMARK   29  A    between atoms: _68  and  _69
REMARK   30  A    between atoms: _68  and  _71
REMARK   31  A    between atoms: _71  and  _72
REMARK   32  A    between atoms: _75  and  _77
REMARK   33  A    between atoms: _77  and  _78
REMARK   34  A    between atoms: _77  and  _80
REMARK   35  A    between atoms: _80  and  _81
REMARK   36  A    between atoms: _87  and  _89
REMARK   37  A    between atoms: _89  and  _90
REMARK   38  A    between atoms: _89  and  _92
REMARK   39  A    between atoms: _92  and  _93
REMARK   40  A    between atoms: _96  and  _98
REMARK   41  A    between atoms: _98  and  _99
REMARK   42  A    between atoms: _98  and  _101
REMARK   43  A    between atoms: _101  and  _102
REMARK   44  A    between atoms: _105  and  _107
REMARK   45  A    between atoms: _107  and  _108
REMARK   46  A    between atoms: _110  and  _112
REMARK   47  A    between atoms: _112  and  _113
REMARK   48  A    between atoms: _112  and  _115
REMARK   49  A    between atoms: _115  and  _116
REMARK   50  A    between atoms: _118  and  _120
REMARK   51  A    between atoms: _120  and  _121
REMARK   52  A    between atoms: _120  and  _123
REMARK   53  A    between atoms: _123  and  _124
REMARK   54  A    between atoms: _126  and  _128
REMARK   55  A    between atoms: _128  and  _129
REMARK   56  A    between atoms: _128  and  _131
REMARK   57  A    between atoms: _131  and  _132
REMARK   58  A    between atoms: _135  and  _137
REMARK   59  A    between atoms: _137  and  _138
REMARK   60  A    between atoms: _137  and  _140
REMARK   61  A    between atoms: _140  and  _141
REMARK   62  A    between atoms: _151  and  _153
REMARK   63  A    between atoms: _153  and  _154
REMARK   64  A    between atoms: _153  and  _156
REMARK   65  A    between atoms: _156  and  _157
REMARK   66  A    between atoms: _159  and  _161
REMARK   67  A    between atoms: _161  and  _162
REMARK   68  A    between atoms: _161  and  _164
REMARK   69  A    between atoms: _164  and  _165
REMARK   70  A    between atoms: _168  and  _170
REMARK   71  A    between atoms: _170  and  _171
REMARK   72  A    between atoms: _170  and  _173
REMARK   73  A    between atoms: _173  and  _174
REMARK   74  A    between atoms: _176  and  _178
REMARK   75  A    between atoms: _178  and  _179
REMARK   76  A    between atoms: _178  and  _181
REMARK   77  A    between atoms: _181  and  _182
REMARK   78  A    between atoms: _187  and  _188
REMARK   79  A    between atoms: _190  and  _192
REMARK   80  A    between atoms: _192  and  _193
REMARK   81  A    between atoms: _195  and  _197
REMARK   82  A    between atoms: _197  and  _198
REMARK   83  A    between atoms: _197  and  _200
REMARK   84  A    between atoms: _200  and  _201
REMARK   85  A    between atoms: _204  and  _206
REMARK   86  A    between atoms: _206  and  _207
REMARK   87  A    between atoms: _209  and  _211
REMARK   88  A    between atoms: _211  and  _212
REMARK   89  A    between atoms: _211  and  _214
REMARK   90  A    between atoms: _214  and  _215
REMARK   91  A    between atoms: _217  and  _219
REMARK   92  A    between atoms: _219  and  _220
REMARK   93  A    between atoms: _219  and  _222
REMARK   94  A    between atoms: _222  and  _223
REMARK   95  A    between atoms: _225  and  _227
REMARK   96  A    between atoms: _227  and  _228
REMARK   97  A    between atoms: _227  and  _230
REMARK   98  A    between atoms: _230  and  _231
REMARK   99  A    between atoms: _233  and  _235
REMARK  100  A    between atoms: _235  and  _236
REMARK  101  A    between atoms: _235  and  _238
REMARK  102  A    between atoms: _238  and  _239
REMARK  103  A    between atoms: _241  and  _243
REMARK  104  A    between atoms: _243  and  _244
REMARK  105  A    between atoms: _243  and  _246
REMARK  106  A    between atoms: _246  and  _247
REMARK  107  A    between atoms: _249  and  _251
REMARK  108  A    between atoms: _251  and  _252
REMARK  109  A    between atoms: _251  and  _254
REMARK  110  A    between atoms: _254  and  _255
REMARK  111  A    between atoms: _261  and  _263
REMARK  112  A    between atoms: _263  and  _264
REMARK  113  A    between atoms: _263  and  _266
REMARK  114  A    between atoms: _266  and  _267
REMARK  115  A    between atoms: _270  and  _272
REMARK  116  A    between atoms: _272  and  _273
REMARK  117  A    between atoms: _272  and  _275
REMARK  118  A    between atoms: _275  and  _276
REMARK  119  A    between atoms: _276  and  _277
REMARK  120  A    between atoms: _280  and  _282
REMARK  121  A    between atoms: _282  and  _283
REMARK  122  A    between atoms: _282  and  _285
REMARK  123  A    between atoms: _285  and  _286
REMARK  124  A    between atoms: _289  and  _291
REMARK  125  A    between atoms: _291  and  _292
REMARK  126  A    between atoms: _291  and  _294
REMARK  127  A    between atoms: _294  and  _295
REMARK  128  A    between atoms: _297  and  _299
REMARK  129  A    between atoms: _299  and  _300
REMARK  130  A    between atoms: _299  and  _302
REMARK  131  A    between atoms: _302  and  _303
REMARK  132  A    between atoms: _306  and  _308
REMARK  133  A    between atoms: _308  and  _309
REMARK  134  A    between atoms: _308  and  _311
REMARK  135  A    between atoms: _311  and  _312
REMARK  136  A    between atoms: _315  and  _317
REMARK  137  A    between atoms: _317  and  _318
REMARK  138  A    between atoms: _320  and  _322
REMARK  139  A    between atoms: _322  and  _323
REMARK  140  A    between atoms: _322  and  _325
REMARK  141  A    between atoms: _325  and  _326
REMARK  142  A    between atoms: _329  and  _331
REMARK  143  A    between atoms: _331  and  _332
REMARK  144  A    between atoms: _331  and  _334
REMARK  145  A    between atoms: _334  and  _335
REMARK  146  A    between atoms: _338  and  _340
REMARK  147  A    between atoms: _340  and  _341
REMARK  148  A    between atoms: _340  and  _343
REMARK  149  A    between atoms: _343  and  _344
REMARK  150  A    between atoms: _347  and  _349
REMARK  151  A    between atoms: _349  and  _350
REMARK  152  A    between atoms: _353  and  _355
REMARK  153  A    between atoms: _355  and  _356
REMARK  154  A    between atoms: _355  and  _358
REMARK  155  A    between atoms: _358  and  _359
REMARK  156  A    between atoms: _362  and  _364
REMARK  157  A    between atoms: _364  and  _365
REMARK  158  A    between atoms: _364  and  _367
REMARK  159  A    between atoms: _367  and  _368
REMARK  160  A    between atoms: _371  and  _373
REMARK  161  A    between atoms: _373  and  _374
REMARK  162  A    between atoms: _373  and  _376
REMARK  163  A    between atoms: _376  and  _377
REMARK  164  A    between atoms: _382  and  _384
REMARK  165  A    between atoms: _384  and  _385
REMARK  166  A    between atoms: _384  and  _387
REMARK  167  A    between atoms: _387  and  _388
REMARK  168  A    between atoms: _391  and  _393
REMARK  169  A    between atoms: _393  and  _394
REMARK  170  A    between atoms: _393  and  _396
REMARK  171  A    between atoms: _396  and  _397
REMARK  172  A    between atoms: _397  and  _398
REMARK  173  A    between atoms: _403  and  _405
REMARK  174  A    between atoms: _405  and  _406
REMARK  175  A    between atoms: _408  and  _410
REMARK  176  A    between atoms: _410  and  _411
REMARK  177  A    between atoms: _410  and  _413
REMARK  178  A    between atoms: _413  and  _414
REMARK  179  A    between atoms: _420  and  _422
REMARK  180  A    between atoms: _422  and  _423
REMARK  181  A    between atoms: _425  and  _427
REMARK  182  A    between atoms: _427  and  _428
REMARK  183  A    between atoms: _427  and  _430
REMARK  184  A    between atoms: _430  and  _431
REMARK  185  A    between atoms: _434  and  _436
REMARK  186  A    between atoms: _436  and  _437
REMARK  187  A    between atoms: _440  and  _442
REMARK  188  A    between atoms: _442  and  _443
REMARK  189  A    between atoms: _442  and  _445
REMARK  190  A    between atoms: _445  and  _446
REMARK  191  A    between atoms: _449  and  _451
REMARK  192  A    between atoms: _451  and  _452
REMARK  193  A    between atoms: _451  and  _454
REMARK  194  A    between atoms: _454  and  _455
REMARK  195  A    between atoms: _458  and  _460
REMARK  196  A    between atoms: _460  and  _461
REMARK  197  A    between atoms: _463  and  _465
REMARK  198  A    between atoms: _465  and  _466
REMARK  199  A    between atoms: _465  and  _468
REMARK  200  A    between atoms: _468  and  _469
REMARK  201  A    between atoms: _472  and  _474
REMARK  202  A    between atoms: _474  and  _475
REMARK  203  A    between atoms: _474  and  _477
REMARK  204  A    between atoms: _477  and  _478
REMARK  205  A    between atoms: _481  and  _483
REMARK  206  A    between atoms: _483  and  _484
REMARK  207  A    between atoms: _483  and  _486
REMARK  208  A    between atoms: _486  and  _487
REMARK  209  A    between atoms: _490  and  _492
REMARK  210  A    between atoms: _492  and  _493
REMARK  211  A    between atoms: _492  and  _495
REMARK  212  A    between atoms: _495  and  _496
REMARK  213  A    between atoms: _499  and  _501
REMARK  214  A    between atoms: _501  and  _502
REMARK  215  A    between atoms: _501  and  _504
REMARK  216  A    between atoms: _504  and  _505
REMARK  217  A    between atoms: _510  and  _511
REMARK  218  A    between atoms: _513  and  _515
REMARK  219  A    between atoms: _515  and  _516
REMARK  220  A    between atoms: _515  and  _518
REMARK  221  A    between atoms: _521  and  _523
REMARK  222  A    between atoms: _523  and  _524
REMARK  223  A    between atoms: _526  and  _528
REMARK  224  A    between atoms: _528  and  _529
REMARK  225  A    between atoms: _528  and  _531
REMARK  226  A    between atoms: _531  and  _532
REMARK  227  A    between atoms: _538  and  _540
REMARK  228  A    between atoms: _540  and  _541
REMARK  229  A    between atoms: _543  and  _545
REMARK  230  A    between atoms: _545  and  _546
REMARK  231  A    between atoms: _545  and  _548
REMARK  232  A    between atoms: _548  and  _549
REMARK  233  A    between atoms: _555  and  _557
REMARK  234  A    between atoms: _557  and  _558
REMARK  235  A    between atoms: _560  and  _562
REMARK  236  A    between atoms: _562  and  _563
REMARK  237  A    between atoms: _565  and  _567
REMARK  238  A    between atoms: _567  and  _568
REMARK  239  A    between atoms: _567  and  _570
REMARK  240  A    between atoms: _570  and  _571
REMARK  241  A    between atoms: _571  and  _572
REMARK  242  A    between atoms: _577  and  _579
REMARK  243  A    between atoms: _579  and  _580
REMARK  244  A    between atoms: _579  and  _582
REMARK  245  A    between atoms: _582  and  _583
REMARK  246  A    between atoms: _585  and  _587
REMARK  247  A    between atoms: _587  and  _588
REMARK  248  A    between atoms: _587  and  _590
REMARK  249  A    between atoms: _590  and  _591
REMARK  250  A    between atoms: _593  and  _595
REMARK  251  A    between atoms: _595  and  _596
REMARK  252  A    between atoms: _598  and  _600
REMARK  253  A    between atoms: _600  and  _601
REMARK  254  A    between atoms: _600  and  _603
REMARK  255  A    between atoms: _603  and  _604
REMARK  256  A    between atoms: _607  and  _609
REMARK  257  A    between atoms: _609  and  _610
REMARK  258  A    between atoms: _612  and  _614
REMARK  259  A    between atoms: _614  and  _615
REMARK  260  A    between atoms: _614  and  _617
REMARK  261  A    between atoms: _617  and  _618
REMARK  262  A    between atoms: _621  and  _623
REMARK  263  A    between atoms: _623  and  _624
REMARK  264  A    between atoms: _623  and  _626
REMARK  265  A    between atoms: _626  and  _627
REMARK  266  A    between atoms: _632  and  _634
REMARK  267  A    between atoms: _634  and  _635
REMARK  268  A    between atoms: _634  and  _637
REMARK  269  A    between atoms: _637  and  _638
REMARK  270  A    between atoms: _641  and  _643
REMARK  271  A    between atoms: _643  and  _644
REMARK  272  A    between atoms: _643  and  _646
REMARK  273  A    between atoms: _646  and  _647
REMARK  274  A    between atoms: _653  and  _655
REMARK  275  A    between atoms: _655  and  _656
REMARK  276  A    between atoms: _658  and  _660
REMARK  277  A    between atoms: _660  and  _661
REMARK  278  A    between atoms: _660  and  _663
REMARK  279  A    between atoms: _663  and  _664
REMARK                            x       y       z     vdW  Elec       q    Type
REMARK                         _______ _______ _______ _____ _____    ______ ____
ROOT
ATOM      1  O   HOH     1      -0.273  41.033   6.751  0.00  0.00    +0.000 OA
ENDROOT
TORSDOF 0
REMARK  Name = ../refined-set-2016/4er1/4er1_pocket.pdb
REMARK  279 active torsions:
REMARK  status: ('A' for Active; 'I' for Inactive)
REMARK    1  A    between atoms: _1  and  _3
REMARK    2  A    between atoms: _3  and  _4
REMARK    3  A    between atoms: _3  and  _6
REMARK    4  A    between atoms: _6  and  _7
REMARK    5  A    between atoms: _10  and  _12
REMARK    6  A    between atoms: _12  and  _13
REMARK    7  A    between atoms: _12  and  _15
REMARK    8  A    between atoms: _15  and  _16
REMARK    9  A    between atoms: _19  and  _21
REMARK   10  A    between atoms: _21  and  _22
REMARK   11  A    between atoms: _21  and  _24
REMARK   12  A    between atoms: _24  and  _25
REMARK   13  A    between atoms: _28  and  _30
REMARK   14  A    between atoms: _30  and  _31
REMARK   15  A    between atoms: _30  and  _33
REMARK   16  A    between atoms: _33  and  _34
REMARK   17  A    between atoms: _37  and  _39
REMARK   18  A    between atoms: _39  and  _40
REMARK   19  A    between atoms: _39  and  _42
REMARK   20  A    between atoms: _42  and  _43
REMARK   21  A    between atoms: _46  and  _48
REMARK   22  A    between atoms: _48  and  _49
REMARK   23  A    between atoms: _52  and  _54
REMARK   24  A    between atoms: _54  and  _55
REMARK   25  A    between atoms: _54  and  _57
REMARK   26  A    between atoms: _57  and  _58
REMARK   27  A    between atoms: _63  and  _64
REMARK   28  A    between atoms: _66  and  _68
REMARK   29  A    between atoms: _68  and  _69
REMARK   30  A    between atoms: _68  and  _71
REMARK   31  A    between atoms: _71  and  _72
REMARK   32  A    between atoms: _75  and  _77
REMARK   33  A    between atoms: _77  and  _78
REMARK   34  A    between atoms: _77  and  _80
REMARK   35  A    between atoms: _80  and  _81
REMARK   36  A    between atoms: _87  and  _89
REMARK   37  A    between atoms: _89  and  _90
REMARK   38  A    between atoms: _89  and  _92
REMARK   39  A    between atoms: _92  and  _93
REMARK   40  A    between atoms: _96  and  _98
REMARK   41  A    between atoms: _98  and  _99
REMARK   42  A    between atoms: _98  and  _101
REMARK   43  A    between atoms: _101  and  _102
REMARK   44  A    between atoms: _105  and  _107
REMARK   45  A    between atoms: _107  and  _108
REMARK   46  A    between atoms: _110  and  _112
REMARK   47  A    between atoms: _112  and  _113
REMARK   48  A    between atoms: _112  and  _115
REMARK   49  A    between atoms: _115  and  _116
REMARK   50  A    between atoms: _118  and  _120
REMARK   51  A    between atoms: _120  and  _121
REMARK   52  A    between atoms: _120  and  _123
REMARK   53  A    between atoms: _123  and  _124
REMARK   54  A    between atoms: _126  and  _128
REMARK   55  A    between atoms: _128  and  _129
REMARK   56  A    between atoms: _128  and  _131
REMARK   57  A    between atoms: _131  and  _132
REMARK   58  A    between atoms: _135  and  _137
REMARK   59  A    between atoms: _137  and  _138
REMARK   60  A    between atoms: _137  and  _140
REMARK   61  A    between atoms: _140  and  _141
REMARK   62  A    between atoms: _151  and  _153
REMARK   63  A    between atoms: _153  and  _154
REMARK   64  A    between atoms: _153  and  _156
REMARK   65  A    between atoms: _156  and  _157
REMARK   66  A    between atoms: _159  and  _161
REMARK   67  A    between atoms: _161  and  _162
REMARK   68  A    between atoms: _161  and  _164
REMARK   69  A    between atoms: _164  and  _165
REMARK   70  A    between atoms: _168  and  _170
REMARK   71  A    between atoms: _170  and  _171
REMARK   72  A    between atoms: _170  and  _173
REMARK   73  A    between atoms: _173  and  _174
REMARK   74  A    between atoms: _176  and  _178
REMARK   75  A    between atoms: _178  and  _179
REMARK   76  A    between atoms: _178  and  _181
REMARK   77  A    between atoms: _181  and  _182
REMARK   78  A    between atoms: _187  and  _188
REMARK   79  A    between atoms: _190  and  _192
REMARK   80  A    between atoms: _192  and  _193
REMARK   81  A    between atoms: _195  and  _197
REMARK   82  A    between atoms: _197  and  _198
REMARK   83  A    between atoms: _197  and  _200
REMARK   84  A    between atoms: _200  and  _201
REMARK   85  A    between atoms: _204  and  _206
REMARK   86  A    between atoms: _206  and  _207
REMARK   87  A    between atoms: _209  and  _211
REMARK   88  A    between atoms: _211  and  _212
REMARK   89  A    between atoms: _211  and  _214
REMARK   90  A    between atoms: _214  and  _215
REMARK   91  A    between atoms: _217  and  _219
REMARK   92  A    between atoms: _219  and  _220
REMARK   93  A    between atoms: _219  and  _222
REMARK   94  A    between atoms: _222  and  _223
REMARK   95  A    between atoms: _225  and  _227
REMARK   96  A    between atoms: _227  and  _228
REMARK   97  A    between atoms: _227  and  _230
REMARK   98  A    between atoms: _230  and  _231
REMARK   99  A    between atoms: _233  and  _235
REMARK  100  A    between atoms: _235  and  _236
REMARK  101  A    between atoms: _235  and  _238
REMARK  102  A    between atoms: _238  and  _239
REMARK  103  A    between atoms: _241  and  _243
REMARK  104  A    between atoms: _243  and  _244
REMARK  105  A    between atoms: _243  and  _246
REMARK  106  A    between atoms: _246  and  _247
REMARK  107  A    between atoms: _249  and  _251
REMARK  108  A    between atoms: _251  and  _252
REMARK  109  A    between atoms: _251  and  _254
REMARK  110  A    between atoms: _254  and  _255
REMARK  111  A    between atoms: _261  and  _263
REMARK  112  A    between atoms: _263  and  _264
REMARK  113  A    between atoms: _263  and  _266
REMARK  114  A    between atoms: _266  and  _267
REMARK  115  A    between atoms: _270  and  _272
REMARK  116  A    between atoms: _272  and  _273
REMARK  117  A    between atoms: _272  and  _275
REMARK  118  A    between atoms: _275  and  _276
REMARK  119  A    between atoms: _276  and  _277
REMARK  120  A    between atoms: _280  and  _282
REMARK  121  A    between atoms: _282  and  _283
REMARK  122  A    between atoms: _282  and  _285
REMARK  123  A    between atoms: _285  and  _286
REMARK  124  A    between atoms: _289  and  _291
REMARK  125  A    between atoms: _291  and  _292
REMARK  126  A    between atoms: _291  and  _294
REMARK  127  A    between atoms: _294  and  _295
REMARK  128  A    between atoms: _297  and  _299
REMARK  129  A    between atoms: _299  and  _300
REMARK  130  A    between atoms: _299  and  _302
REMARK  131  A    between atoms: _302  and  _303
REMARK  132  A    between atoms: _306  and  _308
REMARK  133  A    between atoms: _308  and  _309
REMARK  134  A    between atoms: _308  and  _311
REMARK  135  A    between atoms: _311  and  _312
REMARK  136  A    between atoms: _315  and  _317
REMARK  137  A    between atoms: _317  and  _318
REMARK  138  A    between atoms: _320  and  _322
REMARK  139  A    between atoms: _322  and  _323
REMARK  140  A    between atoms: _322  and  _325
REMARK  141  A    between atoms: _325  and  _326
REMARK  142  A    between atoms: _329  and  _331
REMARK  143  A    between atoms: _331  and  _332
REMARK  144  A    between atoms: _331  and  _334
REMARK  145  A    between atoms: _334  and  _335
REMARK  146  A    between atoms: _338  and  _340
REMARK  147  A    between atoms: _340  and  _341
REMARK  148  A    between atoms: _340  and  _343
REMARK  149  A    between atoms: _343  and  _344
REMARK  150  A    between atoms: _347  and  _349
REMARK  151  A    between atoms: _349  and  _350
REMARK  152  A    between atoms: _353  and  _355
REMARK  153  A    between atoms: _355  and  _356
REMARK  154  A    between atoms: _355  and  _358
REMARK  155  A    between atoms: _358  and  _359
REMARK  156  A    between atoms: _362  and  _364
REMARK  157  A    between atoms: _364  and  _365
REMARK  158  A    between atoms: _364  and  _367
REMARK  159  A    between atoms: _367  and  _368
REMARK  160  A    between atoms: _371  and  _373
REMARK  161  A    between atoms: _373  and  _374
REMARK  162  A    between atoms: _373  and  _376
REMARK  163  A    between atoms: _376  and  _377
REMARK  164  A    between atoms: _382  and  _384
REMARK  165  A    between atoms: _384  and  _385
REMARK  166  A    between atoms: _384  and  _387
REMARK  167  A    between atoms: _387  and  _388
REMARK  168  A    between atoms: _391  and  _393
REMARK  169  A    between atoms: _393  and  _394
REMARK  170  A    between atoms: _393  and  _396
REMARK  171  A    between atoms: _396  and  _397
REMARK  172  A    between atoms: _397  and  _398
REMARK  173  A    between atoms: _403  and  _405
REMARK  174  A    between atoms: _405  and  _406
REMARK  175  A    between atoms: _408  and  _410
REMARK  176  A    between atoms: _410  and  _411
REMARK  177  A    between atoms: _410  and  _413
REMARK  178  A    between atoms: _413  and  _414
REMARK  179  A    between atoms: _420  and  _422
REMARK  180  A    between atoms: _422  and  _423
REMARK  181  A    between atoms: _425  and  _427
REMARK  182  A    between atoms: _427  and  _428
REMARK  183  A    between atoms: _427  and  _430
REMARK  184  A    between atoms: _430  and  _431
REMARK  185  A    between atoms: _434  and  _436
REMARK  186  A    between atoms: _436  and  _437
REMARK  187  A    between atoms: _440  and  _442
REMARK  188  A    between atoms: _442  and  _443
REMARK  189  A    between atoms: _442  and  _445
REMARK  190  A    between atoms: _445  and  _446
REMARK  191  A    between atoms: _449  and  _451
REMARK  192  A    between atoms: _451  and  _452
REMARK  193  A    between atoms: _451  and  _454
REMARK  194  A    between atoms: _454  and  _455
REMARK  195  A    between atoms: _458  and  _460
REMARK  196  A    between atoms: _460  and  _461
REMARK  197  A    between atoms: _463  and  _465
REMARK  198  A    between atoms: _465  and  _466
REMARK  199  A    between atoms: _465  and  _468
REMARK  200  A    between atoms: _468  and  _469
REMARK  201  A    between atoms: _472  and  _474
REMARK  202  A    between atoms: _474  and  _475
REMARK  203  A    between atoms: _474  and  _477
REMARK  204  A    between atoms: _477  and  _478
REMARK  205  A    between atoms: _481  and  _483
REMARK  206  A    between atoms: _483  and  _484
REMARK  207  A    between atoms: _483  and  _486
REMARK  208  A    between atoms: _486  and  _487
REMARK  209  A    between atoms: _490  and  _492
REMARK  210  A    between atoms: _492  and  _493
REMARK  211  A    between atoms: _492  and  _495
REMARK  212  A    between atoms: _495  and  _496
REMARK  213  A    between atoms: _499  and  _501
REMARK  214  A    between atoms: _501  and  _502
REMARK  215  A    between atoms: _501  and  _504
REMARK  216  A    between atoms: _504  and  _505
REMARK  217  A    between atoms: _510  and  _511
REMARK  218  A    between atoms: _513  and  _515
REMARK  219  A    between atoms: _515  and  _516
REMARK  220  A    between atoms: _515  and  _518
REMARK  221  A    between atoms: _521  and  _523
REMARK  222  A    between atoms: _523  and  _524
REMARK  223  A    between atoms: _526  and  _528
REMARK  224  A    between atoms: _528  and  _529
REMARK  225  A    between atoms: _528  and  _531
REMARK  226  A    between atoms: _531  and  _532
REMARK  227  A    between atoms: _538  and  _540
REMARK  228  A    between atoms: _540  and  _541
REMARK  229  A    between atoms: _543  and  _545
REMARK  230  A    between atoms: _545  and  _546
REMARK  231  A    between atoms: _545  and  _548
REMARK  232  A    between atoms: _548  and  _549
REMARK  233  A    between atoms: _555  and  _557
REMARK  234  A    between atoms: _557  and  _558
REMARK  235  A    between atoms: _560  and  _562
REMARK  236  A    between atoms: _562  and  _563
REMARK  237  A    between atoms: _565  and  _567
REMARK  238  A    between atoms: _567  and  _568
REMARK  239  A    between atoms: _567  and  _570
REMARK  240  A    between atoms: _570  and  _571
REMARK  241  A    between atoms: _571  and  _572
REMARK  242  A    between atoms: _577  and  _579
REMARK  243  A    between atoms: _579  and  _580
REMARK  244  A    between atoms: _579  and  _582
REMARK  245  A    between atoms: _582  and  _583
REMARK  246  A    between atoms: _585  and  _587
REMARK  247  A    between atoms: _587  and  _588
REMARK  248  A    between atoms: _587  and  _590
REMARK  249  A    between atoms: _590  and  _591
REMARK  250  A    between atoms: _593  and  _595
REMARK  251  A    between atoms: _595  and  _596
REMARK  252  A    between atoms: _598  and  _600
REMARK  253  A    between atoms: _600  and  _601
REMARK  254  A    between atoms: _600  and  _603
REMARK  255  A    between atoms: _603  and  _604
REMARK  256  A    between atoms: _607  and  _609
REMARK  257  A    between atoms: _609  and  _610
REMARK  258  A    between atoms: _612  and  _614
REMARK  259  A    between atoms: _614  and  _615
REMARK  260  A    between atoms: _614  and  _617
REMARK  261  A    between atoms: _617  and  _618
REMARK  262  A    between atoms: _621  and  _623
REMARK  263  A    between atoms: _623  and  _624
REMARK  264  A    between atoms: _623  and  _626
REMARK  265  A    between atoms: _626  and  _627
REMARK  266  A    between atoms: _632  and  _634
REMARK  267  A    between atoms: _634  and  _635
REMARK  268  A    between atoms: _634  and  _637
REMARK  269  A    between atoms: _637  and  _638
REMARK  270  A    between atoms: _641  and  _643
REMARK  271  A    between atoms: _643  and  _644
REMARK  272  A    between atoms: _643  and  _646
REMARK  273  A    between atoms: _646  and  _647
REMARK  274  A    between atoms: _653  and  _655
REMARK  275  A    between atoms: _655  and  _656
REMARK  276  A    between atoms: _658  and  _660
REMARK  277  A    between atoms: _660  and  _661
REMARK  278  A    between atoms: _660  and  _663
REMARK  279  A    between atoms: _663  and  _664
REMARK                            x       y       z     vdW  Elec       q    Type
REMARK                         _______ _______ _______ _____ _____    ______ ____
ROOT
ATOM      1  O   HOH     1       1.532  44.650  17.330  0.00  0.00    +0.000 OA
ENDROOT
TORSDOF 0
REMARK  Name = ../refined-set-2016/4er1/4er1_pocket.pdb
REMARK  279 active torsions:
REMARK  status: ('A' for Active; 'I' for Inactive)
REMARK    1  A    between atoms: _1  and  _3
REMARK    2  A    between atoms: _3  and  _4
REMARK    3  A    between atoms: _3  and  _6
REMARK    4  A    between atoms: _6  and  _7
REMARK    5  A    between atoms: _10  and  _12
REMARK    6  A    between atoms: _12  and  _13
REMARK    7  A    between atoms: _12  and  _15
REMARK    8  A    between atoms: _15  and  _16
REMARK    9  A    between atoms: _19  and  _21
REMARK   10  A    between atoms: _21  and  _22
REMARK   11  A    between atoms: _21  and  _24
REMARK   12  A    between atoms: _24  and  _25
REMARK   13  A    between atoms: _28  and  _30
REMARK   14  A    between atoms: _30  and  _31
REMARK   15  A    between atoms: _30  and  _33
REMARK   16  A    between atoms: _33  and  _34
REMARK   17  A    between atoms: _37  and  _39
REMARK   18  A    between atoms: _39  and  _40
REMARK   19  A    between atoms: _39  and  _42
REMARK   20  A    between atoms: _42  and  _43
REMARK   21  A    between atoms: _46  and  _48
REMARK   22  A    between atoms: _48  and  _49
REMARK   23  A    between atoms: _52  and  _54
REMARK   24  A    between atoms: _54  and  _55
REMARK   25  A    between atoms: _54  and  _57
REMARK   26  A    between atoms: _57  and  _58
REMARK   27  A    between atoms: _63  and  _64
REMARK   28  A    between atoms: _66  and  _68
REMARK   29  A    between atoms: _68  and  _69
REMARK   30  A    between atoms: _68  and  _71
REMARK   31  A    between atoms: _71  and  _72
REMARK   32  A    between atoms: _75  and  _77
REMARK   33  A    between atoms: _77  and  _78
REMARK   34  A    between atoms: _77  and  _80
REMARK   35  A    between atoms: _80  and  _81
REMARK   36  A    between atoms: _87  and  _89
REMARK   37  A    between atoms: _89  and  _90
REMARK   38  A    between atoms: _89  and  _92
REMARK   39  A    between atoms: _92  and  _93
REMARK   40  A    between atoms: _96  and  _98
REMARK   41  A    between atoms: _98  and  _99
REMARK   42  A    between atoms: _98  and  _101
REMARK   43  A    between atoms: _101  and  _102
REMARK   44  A    between atoms: _105  and  _107
REMARK   45  A    between atoms: _107  and  _108
REMARK   46  A    between atoms: _110  and  _112
REMARK   47  A    between atoms: _112  and  _113
REMARK   48  A    between atoms: _112  and  _115
REMARK   49  A    between atoms: _115  and  _116
REMARK   50  A    between atoms: _118  and  _120
REMARK   51  A    between atoms: _120  and  _121
REMARK   52  A    between atoms: _120  and  _123
REMARK   53  A    between atoms: _123  and  _124
REMARK   54  A    between atoms: _126  and  _128
REMARK   55  A    between atoms: _128  and  _129
REMARK   56  A    between atoms: _128  and  _131
REMARK   57  A    between atoms: _131  and  _132
REMARK   58  A    between atoms: _135  and  _137
REMARK   59  A    between atoms: _137  and  _138
REMARK   60  A    between atoms: _137  and  _140
REMARK   61  A    between atoms: _140  and  _141
REMARK   62  A    between atoms: _151  and  _153
REMARK   63  A    between atoms: _153  and  _154
REMARK   64  A    between atoms: _153  and  _156
REMARK   65  A    between atoms: _156  and  _157
REMARK   66  A    between atoms: _159  and  _161
REMARK   67  A    between atoms: _161  and  _162
REMARK   68  A    between atoms: _161  and  _164
REMARK   69  A    between atoms: _164  and  _165
REMARK   70  A    between atoms: _168  and  _170
REMARK   71  A    between atoms: _170  and  _171
REMARK   72  A    between atoms: _170  and  _173
REMARK   73  A    between atoms: _173  and  _174
REMARK   74  A    between atoms: _176  and  _178
REMARK   75  A    between atoms: _178  and  _179
REMARK   76  A    between atoms: _178  and  _181
REMARK   77  A    between atoms: _181  and  _182
REMARK   78  A    between atoms: _187  and  _188
REMARK   79  A    between atoms: _190  and  _192
REMARK   80  A    between atoms: _192  and  _193
REMARK   81  A    between atoms: _195  and  _197
REMARK   82  A    between atoms: _197  and  _198
REMARK   83  A    between atoms: _197  and  _200
REMARK   84  A    between atoms: _200  and  _201
REMARK   85  A    between atoms: _204  and  _206
REMARK   86  A    between atoms: _206  and  _207
REMARK   87  A    between atoms: _209  and  _211
REMARK   88  A    between atoms: _211  and  _212
REMARK   89  A    between atoms: _211  and  _214
REMARK   90  A    between atoms: _214  and  _215
REMARK   91  A    between atoms: _217  and  _219
REMARK   92  A    between atoms: _219  and  _220
REMARK   93  A    between atoms: _219  and  _222
REMARK   94  A    between atoms: _222  and  _223
REMARK   95  A    between atoms: _225  and  _227
REMARK   96  A    between atoms: _227  and  _228
REMARK   97  A    between atoms: _227  and  _230
REMARK   98  A    between atoms: _230  and  _231
REMARK   99  A    between atoms: _233  and  _235
REMARK  100  A    between atoms: _235  and  _236
REMARK  101  A    between atoms: _235  and  _238
REMARK  102  A    between atoms: _238  and  _239
REMARK  103  A    between atoms: _241  and  _243
REMARK  104  A    between atoms: _243  and  _244
REMARK  105  A    between atoms: _243  and  _246
REMARK  106  A    between atoms: _246  and  _247
REMARK  107  A    between atoms: _249  and  _251
REMARK  108  A    between atoms: _251  and  _252
REMARK  109  A    between atoms: _251  and  _254
REMARK  110  A    between atoms: _254  and  _255
REMARK  111  A    between atoms: _261  and  _263
REMARK  112  A    between atoms: _263  and  _264
REMARK  113  A    between atoms: _263  and  _266
REMARK  114  A    between atoms: _266  and  _267
REMARK  115  A    between atoms: _270  and  _272
REMARK  116  A    between atoms: _272  and  _273
REMARK  117  A    between atoms: _272  and  _275
REMARK  118  A    between atoms: _275  and  _276
REMARK  119  A    between atoms: _276  and  _277
REMARK  120  A    between atoms: _280  and  _282
REMARK  121  A    between atoms: _282  and  _283
REMARK  122  A    between atoms: _282  and  _285
REMARK  123  A    between atoms: _285  and  _286
REMARK  124  A    between atoms: _289  and  _291
REMARK  125  A    between atoms: _291  and  _292
REMARK  126  A    between atoms: _291  and  _294
REMARK  127  A    between atoms: _294  and  _295
REMARK  128  A    between atoms: _297  and  _299
REMARK  129  A    between atoms: _299  and  _300
REMARK  130  A    between atoms: _299  and  _302
REMARK  131  A    between atoms: _302  and  _303
REMARK  132  A    between atoms: _306  and  _308
REMARK  133  A    between atoms: _308  and  _309
REMARK  134  A    between atoms: _308  and  _311
REMARK  135  A    between atoms: _311  and  _312
REMARK  136  A    between atoms: _315  and  _317
REMARK  137  A    between atoms: _317  and  _318
REMARK  138  A    between atoms: _320  and  _322
REMARK  139  A    between atoms: _322  and  _323
REMARK  140  A    between atoms: _322  and  _325
REMARK  141  A    between atoms: _325  and  _326
REMARK  142  A    between atoms: _329  and  _331
REMARK  143  A    between atoms: _331  and  _332
REMARK  144  A    between atoms: _331  and  _334
REMARK  145  A    between atoms: _334  and  _335
REMARK  146  A    between atoms: _338  and  _340
REMARK  147  A    between atoms: _340  and  _341
REMARK  148  A    between atoms: _340  and  _343
REMARK  149  A    between atoms: _343  and  _344
REMARK  150  A    between atoms: _347  and  _349
REMARK  151  A    between atoms: _349  and  _350
REMARK  152  A    between atoms: _353  and  _355
REMARK  153  A    between atoms: _355  and  _356
REMARK  154  A    between atoms: _355  and  _358
REMARK  155  A    between atoms: _358  and  _359
REMARK  156  A    between atoms: _362  and  _364
REMARK  157  A    between atoms: _364  and  _365
REMARK  158  A    between atoms: _364  and  _367
REMARK  159  A    between atoms: _367  and  _368
REMARK  160  A    between atoms: _371  and  _373
REMARK  161  A    between atoms: _373  and  _374
REMARK  162  A    between atoms: _373  and  _376
REMARK  163  A    between atoms: _376  and  _377
REMARK  164  A    between atoms: _382  and  _384
REMARK  165  A    between atoms: _384  and  _385
REMARK  166  A    between atoms: _384  and  _387
REMARK  167  A    between atoms: _387  and  _388
REMARK  168  A    between atoms: _391  and  _393
REMARK  169  A    between atoms: _393  and  _394
REMARK  170  A    between atoms: _393  and  _396
REMARK  171  A    between atoms: _396  and  _397
REMARK  172  A    between atoms: _397  and  _398
REMARK  173  A    between atoms: _403  and  _405
REMARK  174  A    between atoms: _405  and  _406
REMARK  175  A    between atoms: _408  and  _410
REMARK  176  A    between atoms: _410  and  _411
REMARK  177  A    between atoms: _410  and  _413
REMARK  178  A    between atoms: _413  and  _414
REMARK  179  A    between atoms: _420  and  _422
REMARK  180  A    between atoms: _422  and  _423
REMARK  181  A    between atoms: _425  and  _427
REMARK  182  A    between atoms: _427  and  _428
REMARK  183  A    between atoms: _427  and  _430
REMARK  184  A    between atoms: _430  and  _431
REMARK  185  A    between atoms: _434  and  _436
REMARK  186  A    between atoms: _436  and  _437
REMARK  187  A    between atoms: _440  and  _442
REMARK  188  A    between atoms: _442  and  _443
REMARK  189  A    between atoms: _442  and  _445
REMARK  190  A    between atoms: _445  and  _446
REMARK  191  A    between atoms: _449  and  _451
REMARK  192  A    between atoms: _451  and  _452
REMARK  193  A    between atoms: _451  and  _454
REMARK  194  A    between atoms: _454  and  _455
REMARK  195  A    between atoms: _458  and  _460
REMARK  196  A    between atoms: _460  and  _461
REMARK  197  A    between atoms: _463  and  _465
REMARK  198  A    between atoms: _465  and  _466
REMARK  199  A    between atoms: _465  and  _468
REMARK  200  A    between atoms: _468  and  _469
REMARK  201  A    between atoms: _472  and  _474
REMARK  202  A    between atoms: _474  and  _475
REMARK  203  A    between atoms: _474  and  _477
REMARK  204  A    between atoms: _477  and  _478
REMARK  205  A    between atoms: _481  and  _483
REMARK  206  A    between atoms: _483  and  _484
REMARK  207  A    between atoms: _483  and  _486
REMARK  208  A    between atoms: _486  and  _487
REMARK  209  A    between atoms: _490  and  _492
REMARK  210  A    between atoms: _492  and  _493
REMARK  211  A    between atoms: _492  and  _495
REMARK  212  A    between atoms: _495  and  _496
REMARK  213  A    between atoms: _499  and  _501
REMARK  214  A    between atoms: _501  and  _502
REMARK  215  A    between atoms: _501  and  _504
REMARK  216  A    between atoms: _504  and  _505
REMARK  217  A    between atoms: _510  and  _511
REMARK  218  A    between atoms: _513  and  _515
REMARK  219  A    between atoms: _515  and  _516
REMARK  220  A    between atoms: _515  and  _518
REMARK  221  A    between atoms: _521  and  _523
REMARK  222  A    between atoms: _523  and  _524
REMARK  223  A    between atoms: _526  and  _528
REMARK  224  A    between atoms: _528  and  _529
REMARK  225  A    between atoms: _528  and  _531
REMARK  226  A    between atoms: _531  and  _532
REMARK  227  A    between atoms: _538  and  _540
REMARK  228  A    between atoms: _540  and  _541
REMARK  229  A    between atoms: _543  and  _545
REMARK  230  A    between atoms: _545  and  _546
REMARK  231  A    between atoms: _545  and  _548
REMARK  232  A    between atoms: _548  and  _549
REMARK  233  A    between atoms: _555  and  _557
REMARK  234  A    between atoms: _557  and  _558
REMARK  235  A    between atoms: _560  and  _562
REMARK  236  A    between atoms: _562  and  _563
REMARK  237  A    between atoms: _565  and  _567
REMARK  238  A    between atoms: _567  and  _568
REMARK  239  A    between atoms: _567  and  _570
REMARK  240  A    between atoms: _570  and  _571
REMARK  241  A    between atoms: _571  and  _572
REMARK  242  A    between atoms: _577  and  _579
REMARK  243  A    between atoms: _579  and  _580
REMARK  244  A    between atoms: _579  and  _582
REMARK  245  A    between atoms: _582  and  _583
REMARK  246  A    between atoms: _585  and  _587
REMARK  247  A    between atoms: _587  and  _588
REMARK  248  A    between atoms: _587  and  _590
REMARK  249  A    between atoms: _590  and  _591
REMARK  250  A    between atoms: _593  and  _595
REMARK  251  A    between atoms: _595  and  _596
REMARK  252  A    between atoms: _598  and  _600
REMARK  253  A    between atoms: _600  and  _601
REMARK  254  A    between atoms: _600  and  _603
REMARK  255  A    between atoms: _603  and  _604
REMARK  256  A    between atoms: _607  and  _609
REMARK  257  A    between atoms: _609  and  _610
REMARK  258  A    between atoms: _612  and  _614
REMARK  259  A    between atoms: _614  and  _615
REMARK  260  A    between atoms: _614  and  _617
REMARK  261  A    between atoms: _617  and  _618
REMARK  262  A    between atoms: _621  and  _623
REMARK  263  A    between atoms: _623  and  _624
REMARK  264  A    between atoms: _623  and  _626
REMARK  265  A    between atoms: _626  and  _627
REMARK  266  A    between atoms: _632  and  _634
REMARK  267  A    between atoms: _634  and  _635
REMARK  268  A    between atoms: _634  and  _637
REMARK  269  A    between atoms: _637  and  _638
REMARK  270  A    between atoms: _641  and  _643
REMARK  271  A    between atoms: _643  and  _644
REMARK  272  A    between atoms: _643  and  _646
REMARK  273  A    between atoms: _646  and  _647
REMARK  274  A    between atoms: _653  and  _655
REMARK  275  A    between atoms: _655  and  _656
REMARK  276  A    between atoms: _658  and  _660
REMARK  277  A    between atoms: _660  and  _661
REMARK  278  A    between atoms: _660  and  _663
REMARK  279  A    between atoms: _663  and  _664
REMARK                            x       y       z     vdW  Elec       q    Type
REMARK                         _______ _______ _______ _____ _____    ______ ____
ROOT
ATOM      1  O   HOH     1       3.034  45.673  12.204  0.00  0.00    +0.000 OA
ENDROOT
TORSDOF 0
REMARK  Name = ../refined-set-2016/4er1/4er1_pocket.pdb
REMARK  279 active torsions:
REMARK  status: ('A' for Active; 'I' for Inactive)
REMARK    1  A    between atoms: _1  and  _3
REMARK    2  A    between atoms: _3  and  _4
REMARK    3  A    between atoms: _3  and  _6
REMARK    4  A    between atoms: _6  and  _7
REMARK    5  A    between atoms: _10  and  _12
REMARK    6  A    between atoms: _12  and  _13
REMARK    7  A    between atoms: _12  and  _15
REMARK    8  A    between atoms: _15  and  _16
REMARK    9  A    between atoms: _19  and  _21
REMARK   10  A    between atoms: _21  and  _22
REMARK   11  A    between atoms: _21  and  _24
REMARK   12  A    between atoms: _24  and  _25
REMARK   13  A    between atoms: _28  and  _30
REMARK   14  A    between atoms: _30  and  _31
REMARK   15  A    between atoms: _30  and  _33
REMARK   16  A    between atoms: _33  and  _34
REMARK   17  A    between atoms: _37  and  _39
REMARK   18  A    between atoms: _39  and  _40
REMARK   19  A    between atoms: _39  and  _42
REMARK   20  A    between atoms: _42  and  _43
REMARK   21  A    between atoms: _46  and  _48
REMARK   22  A    between atoms: _48  and  _49
REMARK   23  A    between atoms: _52  and  _54
REMARK   24  A    between atoms: _54  and  _55
REMARK   25  A    between atoms: _54  and  _57
REMARK   26  A    between atoms: _57  and  _58
REMARK   27  A    between atoms: _63  and  _64
REMARK   28  A    between atoms: _66  and  _68
REMARK   29  A    between atoms: _68  and  _69
REMARK   30  A    between atoms: _68  and  _71
REMARK   31  A    between atoms: _71  and  _72
REMARK   32  A    between atoms: _75  and  _77
REMARK   33  A    between atoms: _77  and  _78
REMARK   34  A    between atoms: _77  and  _80
REMARK   35  A    between atoms: _80  and  _81
REMARK   36  A    between atoms: _87  and  _89
REMARK   37  A    between atoms: _89  and  _90
REMARK   38  A    between atoms: _89  and  _92
REMARK   39  A    between atoms: _92  and  _93
REMARK   40  A    between atoms: _96  and  _98
REMARK   41  A    between atoms: _98  and  _99
REMARK   42  A    between atoms: _98  and  _101
REMARK   43  A    between atoms: _101  and  _102
REMARK   44  A    between atoms: _105  and  _107
REMARK   45  A    between atoms: _107  and  _108
REMARK   46  A    between atoms: _110  and  _112
REMARK   47  A    between atoms: _112  and  _113
REMARK   48  A    between atoms: _112  and  _115
REMARK   49  A    between atoms: _115  and  _116
REMARK   50  A    between atoms: _118  and  _120
REMARK   51  A    between atoms: _120  and  _121
REMARK   52  A    between atoms: _120  and  _123
REMARK   53  A    between atoms: _123  and  _124
REMARK   54  A    between atoms: _126  and  _128
REMARK   55  A    between atoms: _128  and  _129
REMARK   56  A    between atoms: _128  and  _131
REMARK   57  A    between atoms: _131  and  _132
REMARK   58  A    between atoms: _135  and  _137
REMARK   59  A    between atoms: _137  and  _138
REMARK   60  A    between atoms: _137  and  _140
REMARK   61  A    between atoms: _140  and  _141
REMARK   62  A    between atoms: _151  and  _153
REMARK   63  A    between atoms: _153  and  _154
REMARK   64  A    between atoms: _153  and  _156
REMARK   65  A    between atoms: _156  and  _157
REMARK   66  A    between atoms: _159  and  _161
REMARK   67  A    between atoms: _161  and  _162
REMARK   68  A    between atoms: _161  and  _164
REMARK   69  A    between atoms: _164  and  _165
REMARK   70  A    between atoms: _168  and  _170
REMARK   71  A    between atoms: _170  and  _171
REMARK   72  A    between atoms: _170  and  _173
REMARK   73  A    between atoms: _173  and  _174
REMARK   74  A    between atoms: _176  and  _178
REMARK   75  A    between atoms: _178  and  _179
REMARK   76  A    between atoms: _178  and  _181
REMARK   77  A    between atoms: _181  and  _182
REMARK   78  A    between atoms: _187  and  _188
REMARK   79  A    between atoms: _190  and  _192
REMARK   80  A    between atoms: _192  and  _193
REMARK   81  A    between atoms: _195  and  _197
REMARK   82  A    between atoms: _197  and  _198
REMARK   83  A    between atoms: _197  and  _200
REMARK   84  A    between atoms: _200  and  _201
REMARK   85  A    between atoms: _204  and  _206
REMARK   86  A    between atoms: _206  and  _207
REMARK   87  A    between atoms: _209  and  _211
REMARK   88  A    between atoms: _211  and  _212
REMARK   89  A    between atoms: _211  and  _214
REMARK   90  A    between atoms: _214  and  _215
REMARK   91  A    between atoms: _217  and  _219
REMARK   92  A    between atoms: _219  and  _220
REMARK   93  A    between atoms: _219  and  _222
REMARK   94  A    between atoms: _222  and  _223
REMARK   95  A    between atoms: _225  and  _227
REMARK   96  A    between atoms: _227  and  _228
REMARK   97  A    between atoms: _227  and  _230
REMARK   98  A    between atoms: _230  and  _231
REMARK   99  A    between atoms: _233  and  _235
REMARK  100  A    between atoms: _235  and  _236
REMARK  101  A    between atoms: _235  and  _238
REMARK  102  A    between atoms: _238  and  _239
REMARK  103  A    between atoms: _241  and  _243
REMARK  104  A    between atoms: _243  and  _244
REMARK  105  A    between atoms: _243  and  _246
REMARK  106  A    between atoms: _246  and  _247
REMARK  107  A    between atoms: _249  and  _251
REMARK  108  A    between atoms: _251  and  _252
REMARK  109  A    between atoms: _251  and  _254
REMARK  110  A    between atoms: _254  and  _255
REMARK  111  A    between atoms: _261  and  _263
REMARK  112  A    between atoms: _263  and  _264
REMARK  113  A    between atoms: _263  and  _266
REMARK  114  A    between atoms: _266  and  _267
REMARK  115  A    between atoms: _270  and  _272
REMARK  116  A    between atoms: _272  and  _273
REMARK  117  A    between atoms: _272  and  _275
REMARK  118  A    between atoms: _275  and  _276
REMARK  119  A    between atoms: _276  and  _277
REMARK  120  A    between atoms: _280  and  _282
REMARK  121  A    between atoms: _282  and  _283
REMARK  122  A    between atoms: _282  and  _285
REMARK  123  A    between atoms: _285  and  _286
REMARK  124  A    between atoms: _289  and  _291
REMARK  125  A    between atoms: _291  and  _292
REMARK  126  A    between atoms: _291  and  _294
REMARK  127  A    between atoms: _294  and  _295
REMARK  128  A    between atoms: _297  and  _299
REMARK  129  A    between atoms: _299  and  _300
REMARK  130  A    between atoms: _299  and  _302
REMARK  131  A    between atoms: _302  and  _303
REMARK  132  A    between atoms: _306  and  _308
REMARK  133  A    between atoms: _308  and  _309
REMARK  134  A    between atoms: _308  and  _311
REMARK  135  A    between atoms: _311  and  _312
REMARK  136  A    between atoms: _315  and  _317
REMARK  137  A    between atoms: _317  and  _318
REMARK  138  A    between atoms: _320  and  _322
REMARK  139  A    between atoms: _322  and  _323
REMARK  140  A    between atoms: _322  and  _325
REMARK  141  A    between atoms: _325  and  _326
REMARK  142  A    between atoms: _329  and  _331
REMARK  143  A    between atoms: _331  and  _332
REMARK  144  A    between atoms: _331  and  _334
REMARK  145  A    between atoms: _334  and  _335
REMARK  146  A    between atoms: _338  and  _340
REMARK  147  A    between atoms: _340  and  _341
REMARK  148  A    between atoms: _340  and  _343
REMARK  149  A    between atoms: _343  and  _344
REMARK  150  A    between atoms: _347  and  _349
REMARK  151  A    between atoms: _349  and  _350
REMARK  152  A    between atoms: _353  and  _355
REMARK  153  A    between atoms: _355  and  _356
REMARK  154  A    between atoms: _355  and  _358
REMARK  155  A    between atoms: _358  and  _359
REMARK  156  A    between atoms: _362  and  _364
REMARK  157  A    between atoms: _364  and  _365
REMARK  158  A    between atoms: _364  and  _367
REMARK  159  A    between atoms: _367  and  _368
REMARK  160  A    between atoms: _371  and  _373
REMARK  161  A    between atoms: _373  and  _374
REMARK  162  A    between atoms: _373  and  _376
REMARK  163  A    between atoms: _376  and  _377
REMARK  164  A    between atoms: _382  and  _384
REMARK  165  A    between atoms: _384  and  _385
REMARK  166  A    between atoms: _384  and  _387
REMARK  167  A    between atoms: _387  and  _388
REMARK  168  A    between atoms: _391  and  _393
REMARK  169  A    between atoms: _393  and  _394
REMARK  170  A    between atoms: _393  and  _396
REMARK  171  A    between atoms: _396  and  _397
REMARK  172  A    between atoms: _397  and  _398
REMARK  173  A    between atoms: _403  and  _405
REMARK  174  A    between atoms: _405  and  _406
REMARK  175  A    between atoms: _408  and  _410
REMARK  176  A    between atoms: _410  and  _411
REMARK  177  A    between atoms: _410  and  _413
REMARK  178  A    between atoms: _413  and  _414
REMARK  179  A    between atoms: _420  and  _422
REMARK  180  A    between atoms: _422  and  _423
REMARK  181  A    between atoms: _425  and  _427
REMARK  182  A    between atoms: _427  and  _428
REMARK  183  A    between atoms: _427  and  _430
REMARK  184  A    between atoms: _430  and  _431
REMARK  185  A    between atoms: _434  and  _436
REMARK  186  A    between atoms: _436  and  _437
REMARK  187  A    between atoms: _440  and  _442
REMARK  188  A    between atoms: _442  and  _443
REMARK  189  A    between atoms: _442  and  _445
REMARK  190  A    between atoms: _445  and  _446
REMARK  191  A    between atoms: _449  and  _451
REMARK  192  A    between atoms: _451  and  _452
REMARK  193  A    between atoms: _451  and  _454
REMARK  194  A    between atoms: _454  and  _455
REMARK  195  A    between atoms: _458  and  _460
REMARK  196  A    between atoms: _460  and  _461
REMARK  197  A    between atoms: _463  and  _465
REMARK  198  A    between atoms: _465  and  _466
REMARK  199  A    between atoms: _465  and  _468
REMARK  200  A    between atoms: _468  and  _469
REMARK  201  A    between atoms: _472  and  _474
REMARK  202  A    between atoms: _474  and  _475
REMARK  203  A    between atoms: _474  and  _477
REMARK  204  A    between atoms: _477  and  _478
REMARK  205  A    between atoms: _481  and  _483
REMARK  206  A    between atoms: _483  and  _484
REMARK  207  A    between atoms: _483  and  _486
REMARK  208  A    between atoms: _486  and  _487
REMARK  209  A    between atoms: _490  and  _492
REMARK  210  A    between atoms: _492  and  _493
REMARK  211  A    between atoms: _492  and  _495
REMARK  212  A    between atoms: _495  and  _496
REMARK  213  A    between atoms: _499  and  _501
REMARK  214  A    between atoms: _501  and  _502
REMARK  215  A    between atoms: _501  and  _504
REMARK  216  A    between atoms: _504  and  _505
REMARK  217  A    between atoms: _510  and  _511
REMARK  218  A    between atoms: _513  and  _515
REMARK  219  A    between atoms: _515  and  _516
REMARK  220  A    between atoms: _515  and  _518
REMARK  221  A    between atoms: _521  and  _523
REMARK  222  A    between atoms: _523  and  _524
REMARK  223  A    between atoms: _526  and  _528
REMARK  224  A    between atoms: _528  and  _529
REMARK  225  A    between atoms: _528  and  _531
REMARK  226  A    between atoms: _531  and  _532
REMARK  227  A    between atoms: _538  and  _540
REMARK  228  A    between atoms: _540  and  _541
REMARK  229  A    between atoms: _543  and  _545
REMARK  230  A    between atoms: _545  and  _546
REMARK  231  A    between atoms: _545  and  _548
REMARK  232  A    between atoms: _548  and  _549
REMARK  233  A    between atoms: _555  and  _557
REMARK  234  A    between atoms: _557  and  _558
REMARK  235  A    between atoms: _560  and  _562
REMARK  236  A    between atoms: _562  and  _563
REMARK  237  A    between atoms: _565  and  _567
REMARK  238  A    between atoms: _567  and  _568
REMARK  239  A    between atoms: _567  and  _570
REMARK  240  A    between atoms: _570  and  _571
REMARK  241  A    between atoms: _571  and  _572
REMARK  242  A    between atoms: _577  and  _579
REMARK  243  A    between atoms: _579  and  _580
REMARK  244  A    between atoms: _579  and  _582
REMARK  245  A    between atoms: _582  and  _583
REMARK  246  A    between atoms: _585  and  _587
REMARK  247  A    between atoms: _587  and  _588
REMARK  248  A    between atoms: _587  and  _590
REMARK  249  A    between atoms: _590  and  _591
REMARK  250  A    between atoms: _593  and  _595
REMARK  251  A    between atoms: _595  and  _596
REMARK  252  A    between atoms: _598  and  _600
REMARK  253  A    between atoms: _600  and  _601
REMARK  254  A    between atoms: _600  and  _603
REMARK  255  A    between atoms: _603  and  _604
REMARK  256  A    between atoms: _607  and  _609
REMARK  257  A    between atoms: _609  and  _610
REMARK  258  A    between atoms: _612  and  _614
REMARK  259  A    between atoms: _614  and  _615
REMARK  260  A    between atoms: _614  and  _617
REMARK  261  A    between atoms: _617  and  _618
REMARK  262  A    between atoms: _621  and  _623
REMARK  263  A    between atoms: _623  and  _624
REMARK  264  A    between atoms: _623  and  _626
REMARK  265  A    between atoms: _626  and  _627
REMARK  266  A    between atoms: _632  and  _634
REMARK  267  A    between atoms: _634  and  _635
REMARK  268  A    between atoms: _634  and  _637
REMARK  269  A    between atoms: _637  and  _638
REMARK  270  A    between atoms: _641  and  _643
REMARK  271  A    between atoms: _643  and  _644
REMARK  272  A    between atoms: _643  and  _646
REMARK  273  A    between atoms: _646  and  _647
REMARK  274  A    between atoms: _653  and  _655
REMARK  275  A    between atoms: _655  and  _656
REMARK  276  A    between atoms: _658  and  _660
REMARK  277  A    between atoms: _660  and  _661
REMARK  278  A    between atoms: _660  and  _663
REMARK  279  A    between atoms: _663  and  _664
REMARK                            x       y       z     vdW  Elec       q    Type
REMARK                         _______ _______ _______ _____ _____    ______ ____
ROOT
ATOM      1  O   HOH     1       7.386  29.815  26.334  0.00  0.00    +0.000 OA
ENDROOT
TORSDOF 0
REMARK  Name = ../refined-set-2016/4er1/4er1_pocket.pdb
REMARK  279 active torsions:
REMARK  status: ('A' for Active; 'I' for Inactive)
REMARK    1  A    between atoms: _1  and  _3
REMARK    2  A    between atoms: _3  and  _4
REMARK    3  A    between atoms: _3  and  _6
REMARK    4  A    between atoms: _6  and  _7
REMARK    5  A    between atoms: _10  and  _12
REMARK    6  A    between atoms: _12  and  _13
REMARK    7  A    between atoms: _12  and  _15
REMARK    8  A    between atoms: _15  and  _16
REMARK    9  A    between atoms: _19  and  _21
REMARK   10  A    between atoms: _21  and  _22
REMARK   11  A    between atoms: _21  and  _24
REMARK   12  A    between atoms: _24  and  _25
REMARK   13  A    between atoms: _28  and  _30
REMARK   14  A    between atoms: _30  and  _31
REMARK   15  A    between atoms: _30  and  _33
REMARK   16  A    between atoms: _33  and  _34
REMARK   17  A    between atoms: _37  and  _39
REMARK   18  A    between atoms: _39  and  _40
REMARK   19  A    between atoms: _39  and  _42
REMARK   20  A    between atoms: _42  and  _43
REMARK   21  A    between atoms: _46  and  _48
REMARK   22  A    between atoms: _48  and  _49
REMARK   23  A    between atoms: _52  and  _54
REMARK   24  A    between atoms: _54  and  _55
REMARK   25  A    between atoms: _54  and  _57
REMARK   26  A    between atoms: _57  and  _58
REMARK   27  A    between atoms: _63  and  _64
REMARK   28  A    between atoms: _66  and  _68
REMARK   29  A    between atoms: _68  and  _69
REMARK   30  A    between atoms: _68  and  _71
REMARK   31  A    between atoms: _71  and  _72
REMARK   32  A    between atoms: _75  and  _77
REMARK   33  A    between atoms: _77  and  _78
REMARK   34  A    between atoms: _77  and  _80
REMARK   35  A    between atoms: _80  and  _81
REMARK   36  A    between atoms: _87  and  _89
REMARK   37  A    between atoms: _89  and  _90
REMARK   38  A    between atoms: _89  and  _92
REMARK   39  A    between atoms: _92  and  _93
REMARK   40  A    between atoms: _96  and  _98
REMARK   41  A    between atoms: _98  and  _99
REMARK   42  A    between atoms: _98  and  _101
REMARK   43  A    between atoms: _101  and  _102
REMARK   44  A    between atoms: _105  and  _107
REMARK   45  A    between atoms: _107  and  _108
REMARK   46  A    between atoms: _110  and  _112
REMARK   47  A    between atoms: _112  and  _113
REMARK   48  A    between atoms: _112  and  _115
REMARK   49  A    between atoms: _115  and  _116
REMARK   50  A    between atoms: _118  and  _120
REMARK   51  A    between atoms: _120  and  _121
REMARK   52  A    between atoms: _120  and  _123
REMARK   53  A    between atoms: _123  and  _124
REMARK   54  A    between atoms: _126  and  _128
REMARK   55  A    between atoms: _128  and  _129
REMARK   56  A    between atoms: _128  and  _131
REMARK   57  A    between atoms: _131  and  _132
REMARK   58  A    between atoms: _135  and  _137
REMARK   59  A    between atoms: _137  and  _138
REMARK   60  A    between atoms: _137  and  _140
REMARK   61  A    between atoms: _140  and  _141
REMARK   62  A    between atoms: _151  and  _153
REMARK   63  A    between atoms: _153  and  _154
REMARK   64  A    between atoms: _153  and  _156
REMARK   65  A    between atoms: _156  and  _157
REMARK   66  A    between atoms: _159  and  _161
REMARK   67  A    between atoms: _161  and  _162
REMARK   68  A    between atoms: _161  and  _164
REMARK   69  A    between atoms: _164  and  _165
REMARK   70  A    between atoms: _168  and  _170
REMARK   71  A    between atoms: _170  and  _171
REMARK   72  A    between atoms: _170  and  _173
REMARK   73  A    between atoms: _173  and  _174
REMARK   74  A    between atoms: _176  and  _178
REMARK   75  A    between atoms: _178  and  _179
REMARK   76  A    between atoms: _178  and  _181
REMARK   77  A    between atoms: _181  and  _182
REMARK   78  A    between atoms: _187  and  _188
REMARK   79  A    between atoms: _190  and  _192
REMARK   80  A    between atoms: _192  and  _193
REMARK   81  A    between atoms: _195  and  _197
REMARK   82  A    between atoms: _197  and  _198
REMARK   83  A    between atoms: _197  and  _200
REMARK   84  A    between atoms: _200  and  _201
REMARK   85  A    between atoms: _204  and  _206
REMARK   86  A    between atoms: _206  and  _207
REMARK   87  A    between atoms: _209  and  _211
REMARK   88  A    between atoms: _211  and  _212
REMARK   89  A    between atoms: _211  and  _214
REMARK   90  A    between atoms: _214  and  _215
REMARK   91  A    between atoms: _217  and  _219
REMARK   92  A    between atoms: _219  and  _220
REMARK   93  A    between atoms: _219  and  _222
REMARK   94  A    between atoms: _222  and  _223
REMARK   95  A    between atoms: _225  and  _227
REMARK   96  A    between atoms: _227  and  _228
REMARK   97  A    between atoms: _227  and  _230
REMARK   98  A    between atoms: _230  and  _231
REMARK   99  A    between atoms: _233  and  _235
REMARK  100  A    between atoms: _235  and  _236
REMARK  101  A    between atoms: _235  and  _238
REMARK  102  A    between atoms: _238  and  _239
REMARK  103  A    between atoms: _241  and  _243
REMARK  104  A    between atoms: _243  and  _244
REMARK  105  A    between atoms: _243  and  _246
REMARK  106  A    between atoms: _246  and  _247
REMARK  107  A    between atoms: _249  and  _251
REMARK  108  A    between atoms: _251  and  _252
REMARK  109  A    between atoms: _251  and  _254
REMARK  110  A    between atoms: _254  and  _255
REMARK  111  A    between atoms: _261  and  _263
REMARK  112  A    between atoms: _263  and  _264
REMARK  113  A    between atoms: _263  and  _266
REMARK  114  A    between atoms: _266  and  _267
REMARK  115  A    between atoms: _270  and  _272
REMARK  116  A    between atoms: _272  and  _273
REMARK  117  A    between atoms: _272  and  _275
REMARK  118  A    between atoms: _275  and  _276
REMARK  119  A    between atoms: _276  and  _277
REMARK  120  A    between atoms: _280  and  _282
REMARK  121  A    between atoms: _282  and  _283
REMARK  122  A    between atoms: _282  and  _285
REMARK  123  A    between atoms: _285  and  _286
REMARK  124  A    between atoms: _289  and  _291
REMARK  125  A    between atoms: _291  and  _292
REMARK  126  A    between atoms: _291  and  _294
REMARK  127  A    between atoms: _294  and  _295
REMARK  128  A    between atoms: _297  and  _299
REMARK  129  A    between atoms: _299  and  _300
REMARK  130  A    between atoms: _299  and  _302
REMARK  131  A    between atoms: _302  and  _303
REMARK  132  A    between atoms: _306  and  _308
REMARK  133  A    between atoms: _308  and  _309
REMARK  134  A    between atoms: _308  and  _311
REMARK  135  A    between atoms: _311  and  _312
REMARK  136  A    between atoms: _315  and  _317
REMARK  137  A    between atoms: _317  and  _318
REMARK  138  A    between atoms: _320  and  _322
REMARK  139  A    between atoms: _322  and  _323
REMARK  140  A    between atoms: _322  and  _325
REMARK  141  A    between atoms: _325  and  _326
REMARK  142  A    between atoms: _329  and  _331
REMARK  143  A    between atoms: _331  and  _332
REMARK  144  A    between atoms: _331  and  _334
REMARK  145  A    between atoms: _334  and  _335
REMARK  146  A    between atoms: _338  and  _340
REMARK  147  A    between atoms: _340  and  _341
REMARK  148  A    between atoms: _340  and  _343
REMARK  149  A    between atoms: _343  and  _344
REMARK  150  A    between atoms: _347  and  _349
REMARK  151  A    between atoms: _349  and  _350
REMARK  152  A    between atoms: _353  and  _355
REMARK  153  A    between atoms: _355  and  _356
REMARK  154  A    between atoms: _355  and  _358
REMARK  155  A    between atoms: _358  and  _359
REMARK  156  A    between atoms: _362  and  _364
REMARK  157  A    between atoms: _364  and  _365
REMARK  158  A    between atoms: _364  and  _367
REMARK  159  A    between atoms: _367  and  _368
REMARK  160  A    between atoms: _371  and  _373
REMARK  161  A    between atoms: _373  and  _374
REMARK  162  A    between atoms: _373  and  _376
REMARK  163  A    between atoms: _376  and  _377
REMARK  164  A    between atoms: _382  and  _384
REMARK  165  A    between atoms: _384  and  _385
REMARK  166  A    between atoms: _384  and  _387
REMARK  167  A    between atoms: _387  and  _388
REMARK  168  A    between atoms: _391  and  _393
REMARK  169  A    between atoms: _393  and  _394
REMARK  170  A    between atoms: _393  and  _396
REMARK  171  A    between atoms: _396  and  _397
REMARK  172  A    between atoms: _397  and  _398
REMARK  173  A    between atoms: _403  and  _405
REMARK  174  A    between atoms: _405  and  _406
REMARK  175  A    between atoms: _408  and  _410
REMARK  176  A    between atoms: _410  and  _411
REMARK  177  A    between atoms: _410  and  _413
REMARK  178  A    between atoms: _413  and  _414
REMARK  179  A    between atoms: _420  and  _422
REMARK  180  A    between atoms: _422  and  _423
REMARK  181  A    between atoms: _425  and  _427
REMARK  182  A    between atoms: _427  and  _428
REMARK  183  A    between atoms: _427  and  _430
REMARK  184  A    between atoms: _430  and  _431
REMARK  185  A    between atoms: _434  and  _436
REMARK  186  A    between atoms: _436  and  _437
REMARK  187  A    between atoms: _440  and  _442
REMARK  188  A    between atoms: _442  and  _443
REMARK  189  A    between atoms: _442  and  _445
REMARK  190  A    between atoms: _445  and  _446
REMARK  191  A    between atoms: _449  and  _451
REMARK  192  A    between atoms: _451  and  _452
REMARK  193  A    between atoms: _451  and  _454
REMARK  194  A    between atoms: _454  and  _455
REMARK  195  A    between atoms: _458  and  _460
REMARK  196  A    between atoms: _460  and  _461
REMARK  197  A    between atoms: _463  and  _465
REMARK  198  A    between atoms: _465  and  _466
REMARK  199  A    between atoms: _465  and  _468
REMARK  200  A    between atoms: _468  and  _469
REMARK  201  A    between atoms: _472  and  _474
REMARK  202  A    between atoms: _474  and  _475
REMARK  203  A    between atoms: _474  and  _477
REMARK  204  A    between atoms: _477  and  _478
REMARK  205  A    between atoms: _481  and  _483
REMARK  206  A    between atoms: _483  and  _484
REMARK  207  A    between atoms: _483  and  _486
REMARK  208  A    between atoms: _486  and  _487
REMARK  209  A    between atoms: _490  and  _492
REMARK  210  A    between atoms: _492  and  _493
REMARK  211  A    between atoms: _492  and  _495
REMARK  212  A    between atoms: _495  and  _496
REMARK  213  A    between atoms: _499  and  _501
REMARK  214  A    between atoms: _501  and  _502
REMARK  215  A    between atoms: _501  and  _504
REMARK  216  A    between atoms: _504  and  _505
REMARK  217  A    between atoms: _510  and  _511
REMARK  218  A    between atoms: _513  and  _515
REMARK  219  A    between atoms: _515  and  _516
REMARK  220  A    between atoms: _515  and  _518
REMARK  221  A    between atoms: _521  and  _523
REMARK  222  A    between atoms: _523  and  _524
REMARK  223  A    between atoms: _526  and  _528
REMARK  224  A    between atoms: _528  and  _529
REMARK  225  A    between atoms: _528  and  _531
REMARK  226  A    between atoms: _531  and  _532
REMARK  227  A    between atoms: _538  and  _540
REMARK  228  A    between atoms: _540  and  _541
REMARK  229  A    between atoms: _543  and  _545
REMARK  230  A    between atoms: _545  and  _546
REMARK  231  A    between atoms: _545  and  _548
REMARK  232  A    between atoms: _548  and  _549
REMARK  233  A    between atoms: _555  and  _557
REMARK  234  A    between atoms: _557  and  _558
REMARK  235  A    between atoms: _560  and  _562
REMARK  236  A    between atoms: _562  and  _563
REMARK  237  A    between atoms: _565  and  _567
REMARK  238  A    between atoms: _567  and  _568
REMARK  239  A    between atoms: _567  and  _570
REMARK  240  A    between atoms: _570  and  _571
REMARK  241  A    between atoms: _571  and  _572
REMARK  242  A    between atoms: _577  and  _579
REMARK  243  A    between atoms: _579  and  _580
REMARK  244  A    between atoms: _579  and  _582
REMARK  245  A    between atoms: _582  and  _583
REMARK  246  A    between atoms: _585  and  _587
REMARK  247  A    between atoms: _587  and  _588
REMARK  248  A    between atoms: _587  and  _590
REMARK  249  A    between atoms: _590  and  _591
REMARK  250  A    between atoms: _593  and  _595
REMARK  251  A    between atoms: _595  and  _596
REMARK  252  A    between atoms: _598  and  _600
REMARK  253  A    between atoms: _600  and  _601
REMARK  254  A    between atoms: _600  and  _603
REMARK  255  A    between atoms: _603  and  _604
REMARK  256  A    between atoms: _607  and  _609
REMARK  257  A    between atoms: _609  and  _610
REMARK  258  A    between atoms: _612  and  _614
REMARK  259  A    between atoms: _614  and  _615
REMARK  260  A    between atoms: _614  and  _617
REMARK  261  A    between atoms: _617  and  _618
REMARK  262  A    between atoms: _621  and  _623
REMARK  263  A    between atoms: _623  and  _624
REMARK  264  A    between atoms: _623  and  _626
REMARK  265  A    between atoms: _626  and  _627
REMARK  266  A    between atoms: _632  and  _634
REMARK  267  A    between atoms: _634  and  _635
REMARK  268  A    between atoms: _634  and  _637
REMARK  269  A    between atoms: _637  and  _638
REMARK  270  A    between atoms: _641  and  _643
REMARK  271  A    between atoms: _643  and  _644
REMARK  272  A    between atoms: _643  and  _646
REMARK  273  A    between atoms: _646  and  _647
REMARK  274  A    between atoms: _653  and  _655
REMARK  275  A    between atoms: _655  and  _656
REMARK  276  A    between atoms: _658  and  _660
REMARK  277  A    between atoms: _660  and  _661
REMARK  278  A    between atoms: _660  and  _663
REMARK  279  A    between atoms: _663  and  _664
REMARK                            x       y       z     vdW  Elec       q    Type
REMARK                         _______ _______ _______ _____ _____    ______ ____
ROOT
ATOM      1  O   HOH     1       5.261  48.417  10.095  0.00  0.00    +0.000 OA
ENDROOT
TORSDOF 0
REMARK  Name = ../refined-set-2016/4er1/4er1_pocket.pdb
REMARK  279 active torsions:
REMARK  status: ('A' for Active; 'I' for Inactive)
REMARK    1  A    between atoms: _1  and  _3
REMARK    2  A    between atoms: _3  and  _4
REMARK    3  A    between atoms: _3  and  _6
REMARK    4  A    between atoms: _6  and  _7
REMARK    5  A    between atoms: _10  and  _12
REMARK    6  A    between atoms: _12  and  _13
REMARK    7  A    between atoms: _12  and  _15
REMARK    8  A    between atoms: _15  and  _16
REMARK    9  A    between atoms: _19  and  _21
REMARK   10  A    between atoms: _21  and  _22
REMARK   11  A    between atoms: _21  and  _24
REMARK   12  A    between atoms: _24  and  _25
REMARK   13  A    between atoms: _28  and  _30
REMARK   14  A    between atoms: _30  and  _31
REMARK   15  A    between atoms: _30  and  _33
REMARK   16  A    between atoms: _33  and  _34
REMARK   17  A    between atoms: _37  and  _39
REMARK   18  A    between atoms: _39  and  _40
REMARK   19  A    between atoms: _39  and  _42
REMARK   20  A    between atoms: _42  and  _43
REMARK   21  A    between atoms: _46  and  _48
REMARK   22  A    between atoms: _48  and  _49
REMARK   23  A    between atoms: _52  and  _54
REMARK   24  A    between atoms: _54  and  _55
REMARK   25  A    between atoms: _54  and  _57
REMARK   26  A    between atoms: _57  and  _58
REMARK   27  A    between atoms: _63  and  _64
REMARK   28  A    between atoms: _66  and  _68
REMARK   29  A    between atoms: _68  and  _69
REMARK   30  A    between atoms: _68  and  _71
REMARK   31  A    between atoms: _71  and  _72
REMARK   32  A    between atoms: _75  and  _77
REMARK   33  A    between atoms: _77  and  _78
REMARK   34  A    between atoms: _77  and  _80
REMARK   35  A    between atoms: _80  and  _81
REMARK   36  A    between atoms: _87  and  _89
REMARK   37  A    between atoms: _89  and  _90
REMARK   38  A    between atoms: _89  and  _92
REMARK   39  A    between atoms: _92  and  _93
REMARK   40  A    between atoms: _96  and  _98
REMARK   41  A    between atoms: _98  and  _99
REMARK   42  A    between atoms: _98  and  _101
REMARK   43  A    between atoms: _101  and  _102
REMARK   44  A    between atoms: _105  and  _107
REMARK   45  A    between atoms: _107  and  _108
REMARK   46  A    between atoms: _110  and  _112
REMARK   47  A    between atoms: _112  and  _113
REMARK   48  A    between atoms: _112  and  _115
REMARK   49  A    between atoms: _115  and  _116
REMARK   50  A    between atoms: _118  and  _120
REMARK   51  A    between atoms: _120  and  _121
REMARK   52  A    between atoms: _120  and  _123
REMARK   53  A    between atoms: _123  and  _124
REMARK   54  A    between atoms: _126  and  _128
REMARK   55  A    between atoms: _128  and  _129
REMARK   56  A    between atoms: _128  and  _131
REMARK   57  A    between atoms: _131  and  _132
REMARK   58  A    between atoms: _135  and  _137
REMARK   59  A    between atoms: _137  and  _138
REMARK   60  A    between atoms: _137  and  _140
REMARK   61  A    between atoms: _140  and  _141
REMARK   62  A    between atoms: _151  and  _153
REMARK   63  A    between atoms: _153  and  _154
REMARK   64  A    between atoms: _153  and  _156
REMARK   65  A    between atoms: _156  and  _157
REMARK   66  A    between atoms: _159  and  _161
REMARK   67  A    between atoms: _161  and  _162
REMARK   68  A    between atoms: _161  and  _164
REMARK   69  A    between atoms: _164  and  _165
REMARK   70  A    between atoms: _168  and  _170
REMARK   71  A    between atoms: _170  and  _171
REMARK   72  A    between atoms: _170  and  _173
REMARK   73  A    between atoms: _173  and  _174
REMARK   74  A    between atoms: _176  and  _178
REMARK   75  A    between atoms: _178  and  _179
REMARK   76  A    between atoms: _178  and  _181
REMARK   77  A    between atoms: _181  and  _182
REMARK   78  A    between atoms: _187  and  _188
REMARK   79  A    between atoms: _190  and  _192
REMARK   80  A    between atoms: _192  and  _193
REMARK   81  A    between atoms: _195  and  _197
REMARK   82  A    between atoms: _197  and  _198
REMARK   83  A    between atoms: _197  and  _200
REMARK   84  A    between atoms: _200  and  _201
REMARK   85  A    between atoms: _204  and  _206
REMARK   86  A    between atoms: _206  and  _207
REMARK   87  A    between atoms: _209  and  _211
REMARK   88  A    between atoms: _211  and  _212
REMARK   89  A    between atoms: _211  and  _214
REMARK   90  A    between atoms: _214  and  _215
REMARK   91  A    between atoms: _217  and  _219
REMARK   92  A    between atoms: _219  and  _220
REMARK   93  A    between atoms: _219  and  _222
REMARK   94  A    between atoms: _222  and  _223
REMARK   95  A    between atoms: _225  and  _227
REMARK   96  A    between atoms: _227  and  _228
REMARK   97  A    between atoms: _227  and  _230
REMARK   98  A    between atoms: _230  and  _231
REMARK   99  A    between atoms: _233  and  _235
REMARK  100  A    between atoms: _235  and  _236
REMARK  101  A    between atoms: _235  and  _238
REMARK  102  A    between atoms: _238  and  _239
REMARK  103  A    between atoms: _241  and  _243
REMARK  104  A    between atoms: _243  and  _244
REMARK  105  A    between atoms: _243  and  _246
REMARK  106  A    between atoms: _246  and  _247
REMARK  107  A    between atoms: _249  and  _251
REMARK  108  A    between atoms: _251  and  _252
REMARK  109  A    between atoms: _251  and  _254
REMARK  110  A    between atoms: _254  and  _255
REMARK  111  A    between atoms: _261  and  _263
REMARK  112  A    between atoms: _263  and  _264
REMARK  113  A    between atoms: _263  and  _266
REMARK  114  A    between atoms: _266  and  _267
REMARK  115  A    between atoms: _270  and  _272
REMARK  116  A    between atoms: _272  and  _273
REMARK  117  A    between atoms: _272  and  _275
REMARK  118  A    between atoms: _275  and  _276
REMARK  119  A    between atoms: _276  and  _277
REMARK  120  A    between atoms: _280  and  _282
REMARK  121  A    between atoms: _282  and  _283
REMARK  122  A    between atoms: _282  and  _285
REMARK  123  A    between atoms: _285  and  _286
REMARK  124  A    between atoms: _289  and  _291
REMARK  125  A    between atoms: _291  and  _292
REMARK  126  A    between atoms: _291  and  _294
REMARK  127  A    between atoms: _294  and  _295
REMARK  128  A    between atoms: _297  and  _299
REMARK  129  A    between atoms: _299  and  _300
REMARK  130  A    between atoms: _299  and  _302
REMARK  131  A    between atoms: _302  and  _303
REMARK  132  A    between atoms: _306  and  _308
REMARK  133  A    between atoms: _308  and  _309
REMARK  134  A    between atoms: _308  and  _311
REMARK  135  A    between atoms: _311  and  _312
REMARK  136  A    between atoms: _315  and  _317
REMARK  137  A    between atoms: _317  and  _318
REMARK  138  A    between atoms: _320  and  _322
REMARK  139  A    between atoms: _322  and  _323
REMARK  140  A    between atoms: _322  and  _325
REMARK  141  A    between atoms: _325  and  _326
REMARK  142  A    between atoms: _329  and  _331
REMARK  143  A    between atoms: _331  and  _332
REMARK  144  A    between atoms: _331  and  _334
REMARK  145  A    between atoms: _334  and  _335
REMARK  146  A    between atoms: _338  and  _340
REMARK  147  A    between atoms: _340  and  _341
REMARK  148  A    between atoms: _340  and  _343
REMARK  149  A    between atoms: _343  and  _344
REMARK  150  A    between atoms: _347  and  _349
REMARK  151  A    between atoms: _349  and  _350
REMARK  152  A    between atoms: _353  and  _355
REMARK  153  A    between atoms: _355  and  _356
REMARK  154  A    between atoms: _355  and  _358
REMARK  155  A    between atoms: _358  and  _359
REMARK  156  A    between atoms: _362  and  _364
REMARK  157  A    between atoms: _364  and  _365
REMARK  158  A    between atoms: _364  and  _367
REMARK  159  A    between atoms: _367  and  _368
REMARK  160  A    between atoms: _371  and  _373
REMARK  161  A    between atoms: _373  and  _374
REMARK  162  A    between atoms: _373  and  _376
REMARK  163  A    between atoms: _376  and  _377
REMARK  164  A    between atoms: _382  and  _384
REMARK  165  A    between atoms: _384  and  _385
REMARK  166  A    between atoms: _384  and  _387
REMARK  167  A    between atoms: _387  and  _388
REMARK  168  A    between atoms: _391  and  _393
REMARK  169  A    between atoms: _393  and  _394
REMARK  170  A    between atoms: _393  and  _396
REMARK  171  A    between atoms: _396  and  _397
REMARK  172  A    between atoms: _397  and  _398
REMARK  173  A    between atoms: _403  and  _405
REMARK  174  A    between atoms: _405  and  _406
REMARK  175  A    between atoms: _408  and  _410
REMARK  176  A    between atoms: _410  and  _411
REMARK  177  A    between atoms: _410  and  _413
REMARK  178  A    between atoms: _413  and  _414
REMARK  179  A    between atoms: _420  and  _422
REMARK  180  A    between atoms: _422  and  _423
REMARK  181  A    between atoms: _425  and  _427
REMARK  182  A    between atoms: _427  and  _428
REMARK  183  A    between atoms: _427  and  _430
REMARK  184  A    between atoms: _430  and  _431
REMARK  185  A    between atoms: _434  and  _436
REMARK  186  A    between atoms: _436  and  _437
REMARK  187  A    between atoms: _440  and  _442
REMARK  188  A    between atoms: _442  and  _443
REMARK  189  A    between atoms: _442  and  _445
REMARK  190  A    between atoms: _445  and  _446
REMARK  191  A    between atoms: _449  and  _451
REMARK  192  A    between atoms: _451  and  _452
REMARK  193  A    between atoms: _451  and  _454
REMARK  194  A    between atoms: _454  and  _455
REMARK  195  A    between atoms: _458  and  _460
REMARK  196  A    between atoms: _460  and  _461
REMARK  197  A    between atoms: _463  and  _465
REMARK  198  A    between atoms: _465  and  _466
REMARK  199  A    between atoms: _465  and  _468
REMARK  200  A    between atoms: _468  and  _469
REMARK  201  A    between atoms: _472  and  _474
REMARK  202  A    between atoms: _474  and  _475
REMARK  203  A    between atoms: _474  and  _477
REMARK  204  A    between atoms: _477  and  _478
REMARK  205  A    between atoms: _481  and  _483
REMARK  206  A    between atoms: _483  and  _484
REMARK  207  A    between atoms: _483  and  _486
REMARK  208  A    between atoms: _486  and  _487
REMARK  209  A    between atoms: _490  and  _492
REMARK  210  A    between atoms: _492  and  _493
REMARK  211  A    between atoms: _492  and  _495
REMARK  212  A    between atoms: _495  and  _496
REMARK  213  A    between atoms: _499  and  _501
REMARK  214  A    between atoms: _501  and  _502
REMARK  215  A    between atoms: _501  and  _504
REMARK  216  A    between atoms: _504  and  _505
REMARK  217  A    between atoms: _510  and  _511
REMARK  218  A    between atoms: _513  and  _515
REMARK  219  A    between atoms: _515  and  _516
REMARK  220  A    between atoms: _515  and  _518
REMARK  221  A    between atoms: _521  and  _523
REMARK  222  A    between atoms: _523  and  _524
REMARK  223  A    between atoms: _526  and  _528
REMARK  224  A    between atoms: _528  and  _529
REMARK  225  A    between atoms: _528  and  _531
REMARK  226  A    between atoms: _531  and  _532
REMARK  227  A    between atoms: _538  and  _540
REMARK  228  A    between atoms: _540  and  _541
REMARK  229  A    between atoms: _543  and  _545
REMARK  230  A    between atoms: _545  and  _546
REMARK  231  A    between atoms: _545  and  _548
REMARK  232  A    between atoms: _548  and  _549
REMARK  233  A    between atoms: _555  and  _557
REMARK  234  A    between atoms: _557  and  _558
REMARK  235  A    between atoms: _560  and  _562
REMARK  236  A    between atoms: _562  and  _563
REMARK  237  A    between atoms: _565  and  _567
REMARK  238  A    between atoms: _567  and  _568
REMARK  239  A    between atoms: _567  and  _570
REMARK  240  A    between atoms: _570  and  _571
REMARK  241  A    between atoms: _571  and  _572
REMARK  242  A    between atoms: _577  and  _579
REMARK  243  A    between atoms: _579  and  _580
REMARK  244  A    between atoms: _579  and  _582
REMARK  245  A    between atoms: _582  and  _583
REMARK  246  A    between atoms: _585  and  _587
REMARK  247  A    between atoms: _587  and  _588
REMARK  248  A    between atoms: _587  and  _590
REMARK  249  A    between atoms: _590  and  _591
REMARK  250  A    between atoms: _593  and  _595
REMARK  251  A    between atoms: _595  and  _596
REMARK  252  A    between atoms: _598  and  _600
REMARK  253  A    between atoms: _600  and  _601
REMARK  254  A    between atoms: _600  and  _603
REMARK  255  A    between atoms: _603  and  _604
REMARK  256  A    between atoms: _607  and  _609
REMARK  257  A    between atoms: _609  and  _610
REMARK  258  A    between atoms: _612  and  _614
REMARK  259  A    between atoms: _614  and  _615
REMARK  260  A    between atoms: _614  and  _617
REMARK  261  A    between atoms: _617  and  _618
REMARK  262  A    between atoms: _621  and  _623
REMARK  263  A    between atoms: _623  and  _624
REMARK  264  A    between atoms: _623  and  _626
REMARK  265  A    between atoms: _626  and  _627
REMARK  266  A    between atoms: _632  and  _634
REMARK  267  A    between atoms: _634  and  _635
REMARK  268  A    between atoms: _634  and  _637
REMARK  269  A    between atoms: _637  and  _638
REMARK  270  A    between atoms: _641  and  _643
REMARK  271  A    between atoms: _643  and  _644
REMARK  272  A    between atoms: _643  and  _646
REMARK  273  A    between atoms: _646  and  _647
REMARK  274  A    between atoms: _653  and  _655
REMARK  275  A    between atoms: _655  and  _656
REMARK  276  A    between atoms: _658  and  _660
REMARK  277  A    between atoms: _660  and  _661
REMARK  278  A    between atoms: _660  and  _663
REMARK  279  A    between atoms: _663  and  _664
REMARK                            x       y       z     vdW  Elec       q    Type
REMARK                         _______ _______ _______ _____ _____    ______ ____
ROOT
ATOM      1  O   HOH     1      -5.300  34.897  17.515  0.00  0.00    +0.000 OA
ENDROOT
TORSDOF 0
REMARK  Name = ../refined-set-2016/4er1/4er1_pocket.pdb
REMARK  279 active torsions:
REMARK  status: ('A' for Active; 'I' for Inactive)
REMARK    1  A    between atoms: _1  and  _3
REMARK    2  A    between atoms: _3  and  _4
REMARK    3  A    between atoms: _3  and  _6
REMARK    4  A    between atoms: _6  and  _7
REMARK    5  A    between atoms: _10  and  _12
REMARK    6  A    between atoms: _12  and  _13
REMARK    7  A    between atoms: _12  and  _15
REMARK    8  A    between atoms: _15  and  _16
REMARK    9  A    between atoms: _19  and  _21
REMARK   10  A    between atoms: _21  and  _22
REMARK   11  A    between atoms: _21  and  _24
REMARK   12  A    between atoms: _24  and  _25
REMARK   13  A    between atoms: _28  and  _30
REMARK   14  A    between atoms: _30  and  _31
REMARK   15  A    between atoms: _30  and  _33
REMARK   16  A    between atoms: _33  and  _34
REMARK   17  A    between atoms: _37  and  _39
REMARK   18  A    between atoms: _39  and  _40
REMARK   19  A    between atoms: _39  and  _42
REMARK   20  A    between atoms: _42  and  _43
REMARK   21  A    between atoms: _46  and  _48
REMARK   22  A    between atoms: _48  and  _49
REMARK   23  A    between atoms: _52  and  _54
REMARK   24  A    between atoms: _54  and  _55
REMARK   25  A    between atoms: _54  and  _57
REMARK   26  A    between atoms: _57  and  _58
REMARK   27  A    between atoms: _63  and  _64
REMARK   28  A    between atoms: _66  and  _68
REMARK   29  A    between atoms: _68  and  _69
REMARK   30  A    between atoms: _68  and  _71
REMARK   31  A    between atoms: _71  and  _72
REMARK   32  A    between atoms: _75  and  _77
REMARK   33  A    between atoms: _77  and  _78
REMARK   34  A    between atoms: _77  and  _80
REMARK   35  A    between atoms: _80  and  _81
REMARK   36  A    between atoms: _87  and  _89
REMARK   37  A    between atoms: _89  and  _90
REMARK   38  A    between atoms: _89  and  _92
REMARK   39  A    between atoms: _92  and  _93
REMARK   40  A    between atoms: _96  and  _98
REMARK   41  A    between atoms: _98  and  _99
REMARK   42  A    between atoms: _98  and  _101
REMARK   43  A    between atoms: _101  and  _102
REMARK   44  A    between atoms: _105  and  _107
REMARK   45  A    between atoms: _107  and  _108
REMARK   46  A    between atoms: _110  and  _112
REMARK   47  A    between atoms: _112  and  _113
REMARK   48  A    between atoms: _112  and  _115
REMARK   49  A    between atoms: _115  and  _116
REMARK   50  A    between atoms: _118  and  _120
REMARK   51  A    between atoms: _120  and  _121
REMARK   52  A    between atoms: _120  and  _123
REMARK   53  A    between atoms: _123  and  _124
REMARK   54  A    between atoms: _126  and  _128
REMARK   55  A    between atoms: _128  and  _129
REMARK   56  A    between atoms: _128  and  _131
REMARK   57  A    between atoms: _131  and  _132
REMARK   58  A    between atoms: _135  and  _137
REMARK   59  A    between atoms: _137  and  _138
REMARK   60  A    between atoms: _137  and  _140
REMARK   61  A    between atoms: _140  and  _141
REMARK   62  A    between atoms: _151  and  _153
REMARK   63  A    between atoms: _153  and  _154
REMARK   64  A    between atoms: _153  and  _156
REMARK   65  A    between atoms: _156  and  _157
REMARK   66  A    between atoms: _159  and  _161
REMARK   67  A    between atoms: _161  and  _162
REMARK   68  A    between atoms: _161  and  _164
REMARK   69  A    between atoms: _164  and  _165
REMARK   70  A    between atoms: _168  and  _170
REMARK   71  A    between atoms: _170  and  _171
REMARK   72  A    between atoms: _170  and  _173
REMARK   73  A    between atoms: _173  and  _174
REMARK   74  A    between atoms: _176  and  _178
REMARK   75  A    between atoms: _178  and  _179
REMARK   76  A    between atoms: _178  and  _181
REMARK   77  A    between atoms: _181  and  _182
REMARK   78  A    between atoms: _187  and  _188
REMARK   79  A    between atoms: _190  and  _192
REMARK   80  A    between atoms: _192  and  _193
REMARK   81  A    between atoms: _195  and  _197
REMARK   82  A    between atoms: _197  and  _198
REMARK   83  A    between atoms: _197  and  _200
REMARK   84  A    between atoms: _200  and  _201
REMARK   85  A    between atoms: _204  and  _206
REMARK   86  A    between atoms: _206  and  _207
REMARK   87  A    between atoms: _209  and  _211
REMARK   88  A    between atoms: _211  and  _212
REMARK   89  A    between atoms: _211  and  _214
REMARK   90  A    between atoms: _214  and  _215
REMARK   91  A    between atoms: _217  and  _219
REMARK   92  A    between atoms: _219  and  _220
REMARK   93  A    between atoms: _219  and  _222
REMARK   94  A    between atoms: _222  and  _223
REMARK   95  A    between atoms: _225  and  _227
REMARK   96  A    between atoms: _227  and  _228
REMARK   97  A    between atoms: _227  and  _230
REMARK   98  A    between atoms: _230  and  _231
REMARK   99  A    between atoms: _233  and  _235
REMARK  100  A    between atoms: _235  and  _236
REMARK  101  A    between atoms: _235  and  _238
REMARK  102  A    between atoms: _238  and  _239
REMARK  103  A    between atoms: _241  and  _243
REMARK  104  A    between atoms: _243  and  _244
REMARK  105  A    between atoms: _243  and  _246
REMARK  106  A    between atoms: _246  and  _247
REMARK  107  A    between atoms: _249  and  _251
REMARK  108  A    between atoms: _251  and  _252
REMARK  109  A    between atoms: _251  and  _254
REMARK  110  A    between atoms: _254  and  _255
REMARK  111  A    between atoms: _261  and  _263
REMARK  112  A    between atoms: _263  and  _264
REMARK  113  A    between atoms: _263  and  _266
REMARK  114  A    between atoms: _266  and  _267
REMARK  115  A    between atoms: _270  and  _272
REMARK  116  A    between atoms: _272  and  _273
REMARK  117  A    between atoms: _272  and  _275
REMARK  118  A    between atoms: _275  and  _276
REMARK  119  A    between atoms: _276  and  _277
REMARK  120  A    between atoms: _280  and  _282
REMARK  121  A    between atoms: _282  and  _283
REMARK  122  A    between atoms: _282  and  _285
REMARK  123  A    between atoms: _285  and  _286
REMARK  124  A    between atoms: _289  and  _291
REMARK  125  A    between atoms: _291  and  _292
REMARK  126  A    between atoms: _291  and  _294
REMARK  127  A    between atoms: _294  and  _295
REMARK  128  A    between atoms: _297  and  _299
REMARK  129  A    between atoms: _299  and  _300
REMARK  130  A    between atoms: _299  and  _302
REMARK  131  A    between atoms: _302  and  _303
REMARK  132  A    between atoms: _306  and  _308
REMARK  133  A    between atoms: _308  and  _309
REMARK  134  A    between atoms: _308  and  _311
REMARK  135  A    between atoms: _311  and  _312
REMARK  136  A    between atoms: _315  and  _317
REMARK  137  A    between atoms: _317  and  _318
REMARK  138  A    between atoms: _320  and  _322
REMARK  139  A    between atoms: _322  and  _323
REMARK  140  A    between atoms: _322  and  _325
REMARK  141  A    between atoms: _325  and  _326
REMARK  142  A    between atoms: _329  and  _331
REMARK  143  A    between atoms: _331  and  _332
REMARK  144  A    between atoms: _331  and  _334
REMARK  145  A    between atoms: _334  and  _335
REMARK  146  A    between atoms: _338  and  _340
REMARK  147  A    between atoms: _340  and  _341
REMARK  148  A    between atoms: _340  and  _343
REMARK  149  A    between atoms: _343  and  _344
REMARK  150  A    between atoms: _347  and  _349
REMARK  151  A    between atoms: _349  and  _350
REMARK  152  A    between atoms: _353  and  _355
REMARK  153  A    between atoms: _355  and  _356
REMARK  154  A    between atoms: _355  and  _358
REMARK  155  A    between atoms: _358  and  _359
REMARK  156  A    between atoms: _362  and  _364
REMARK  157  A    between atoms: _364  and  _365
REMARK  158  A    between atoms: _364  and  _367
REMARK  159  A    between atoms: _367  and  _368
REMARK  160  A    between atoms: _371  and  _373
REMARK  161  A    between atoms: _373  and  _374
REMARK  162  A    between atoms: _373  and  _376
REMARK  163  A    between atoms: _376  and  _377
REMARK  164  A    between atoms: _382  and  _384
REMARK  165  A    between atoms: _384  and  _385
REMARK  166  A    between atoms: _384  and  _387
REMARK  167  A    between atoms: _387  and  _388
REMARK  168  A    between atoms: _391  and  _393
REMARK  169  A    between atoms: _393  and  _394
REMARK  170  A    between atoms: _393  and  _396
REMARK  171  A    between atoms: _396  and  _397
REMARK  172  A    between atoms: _397  and  _398
REMARK  173  A    between atoms: _403  and  _405
REMARK  174  A    between atoms: _405  and  _406
REMARK  175  A    between atoms: _408  and  _410
REMARK  176  A    between atoms: _410  and  _411
REMARK  177  A    between atoms: _410  and  _413
REMARK  178  A    between atoms: _413  and  _414
REMARK  179  A    between atoms: _420  and  _422
REMARK  180  A    between atoms: _422  and  _423
REMARK  181  A    between atoms: _425  and  _427
REMARK  182  A    between atoms: _427  and  _428
REMARK  183  A    between atoms: _427  and  _430
REMARK  184  A    between atoms: _430  and  _431
REMARK  185  A    between atoms: _434  and  _436
REMARK  186  A    between atoms: _436  and  _437
REMARK  187  A    between atoms: _440  and  _442
REMARK  188  A    between atoms: _442  and  _443
REMARK  189  A    between atoms: _442  and  _445
REMARK  190  A    between atoms: _445  and  _446
REMARK  191  A    between atoms: _449  and  _451
REMARK  192  A    between atoms: _451  and  _452
REMARK  193  A    between atoms: _451  and  _454
REMARK  194  A    between atoms: _454  and  _455
REMARK  195  A    between atoms: _458  and  _460
REMARK  196  A    between atoms: _460  and  _461
REMARK  197  A    between atoms: _463  and  _465
REMARK  198  A    between atoms: _465  and  _466
REMARK  199  A    between atoms: _465  and  _468
REMARK  200  A    between atoms: _468  and  _469
REMARK  201  A    between atoms: _472  and  _474
REMARK  202  A    between atoms: _474  and  _475
REMARK  203  A    between atoms: _474  and  _477
REMARK  204  A    between atoms: _477  and  _478
REMARK  205  A    between atoms: _481  and  _483
REMARK  206  A    between atoms: _483  and  _484
REMARK  207  A    between atoms: _483  and  _486
REMARK  208  A    between atoms: _486  and  _487
REMARK  209  A    between atoms: _490  and  _492
REMARK  210  A    between atoms: _492  and  _493
REMARK  211  A    between atoms: _492  and  _495
REMARK  212  A    between atoms: _495  and  _496
REMARK  213  A    between atoms: _499  and  _501
REMARK  214  A    between atoms: _501  and  _502
REMARK  215  A    between atoms: _501  and  _504
REMARK  216  A    between atoms: _504  and  _505
REMARK  217  A    between atoms: _510  and  _511
REMARK  218  A    between atoms: _513  and  _515
REMARK  219  A    between atoms: _515  and  _516
REMARK  220  A    between atoms: _515  and  _518
REMARK  221  A    between atoms: _521  and  _523
REMARK  222  A    between atoms: _523  and  _524
REMARK  223  A    between atoms: _526  and  _528
REMARK  224  A    between atoms: _528  and  _529
REMARK  225  A    between atoms: _528  and  _531
REMARK  226  A    between atoms: _531  and  _532
REMARK  227  A    between atoms: _538  and  _540
REMARK  228  A    between atoms: _540  and  _541
REMARK  229  A    between atoms: _543  and  _545
REMARK  230  A    between atoms: _545  and  _546
REMARK  231  A    between atoms: _545  and  _548
REMARK  232  A    between atoms: _548  and  _549
REMARK  233  A    between atoms: _555  and  _557
REMARK  234  A    between atoms: _557  and  _558
REMARK  235  A    between atoms: _560  and  _562
REMARK  236  A    between atoms: _562  and  _563
REMARK  237  A    between atoms: _565  and  _567
REMARK  238  A    between atoms: _567  and  _568
REMARK  239  A    between atoms: _567  and  _570
REMARK  240  A    between atoms: _570  and  _571
REMARK  241  A    between atoms: _571  and  _572
REMARK  242  A    between atoms: _577  and  _579
REMARK  243  A    between atoms: _579  and  _580
REMARK  244  A    between atoms: _579  and  _582
REMARK  245  A    between atoms: _582  and  _583
REMARK  246  A    between atoms: _585  and  _587
REMARK  247  A    between atoms: _587  and  _588
REMARK  248  A    between atoms: _587  and  _590
REMARK  249  A    between atoms: _590  and  _591
REMARK  250  A    between atoms: _593  and  _595
REMARK  251  A    between atoms: _595  and  _596
REMARK  252  A    between atoms: _598  and  _600
REMARK  253  A    between atoms: _600  and  _601
REMARK  254  A    between atoms: _600  and  _603
REMARK  255  A    between atoms: _603  and  _604
REMARK  256  A    between atoms: _607  and  _609
REMARK  257  A    between atoms: _609  and  _610
REMARK  258  A    between atoms: _612  and  _614
REMARK  259  A    between atoms: _614  and  _615
REMARK  260  A    between atoms: _614  and  _617
REMARK  261  A    between atoms: _617  and  _618
REMARK  262  A    between atoms: _621  and  _623
REMARK  263  A    between atoms: _623  and  _624
REMARK  264  A    between atoms: _623  and  _626
REMARK  265  A    between atoms: _626  and  _627
REMARK  266  A    between atoms: _632  and  _634
REMARK  267  A    between atoms: _634  and  _635
REMARK  268  A    between atoms: _634  and  _637
REMARK  269  A    between atoms: _637  and  _638
REMARK  270  A    between atoms: _641  and  _643
REMARK  271  A    between atoms: _643  and  _644
REMARK  272  A    between atoms: _643  and  _646
REMARK  273  A    between atoms: _646  and  _647
REMARK  274  A    between atoms: _653  and  _655
REMARK  275  A    between atoms: _655  and  _656
REMARK  276  A    between atoms: _658  and  _660
REMARK  277  A    between atoms: _660  and  _661
REMARK  278  A    between atoms: _660  and  _663
REMARK  279  A    between atoms: _663  and  _664
REMARK                            x       y       z     vdW  Elec       q    Type
REMARK                         _______ _______ _______ _____ _____    ______ ____
ROOT
ATOM      1  O   HOH     1      10.943  27.108  13.737  0.00  0.00    +0.000 OA
ENDROOT
TORSDOF 0
REMARK  Name = ../refined-set-2016/4er1/4er1_pocket.pdb
REMARK  279 active torsions:
REMARK  status: ('A' for Active; 'I' for Inactive)
REMARK    1  A    between atoms: _1  and  _3
REMARK    2  A    between atoms: _3  and  _4
REMARK    3  A    between atoms: _3  and  _6
REMARK    4  A    between atoms: _6  and  _7
REMARK    5  A    between atoms: _10  and  _12
REMARK    6  A    between atoms: _12  and  _13
REMARK    7  A    between atoms: _12  and  _15
REMARK    8  A    between atoms: _15  and  _16
REMARK    9  A    between atoms: _19  and  _21
REMARK   10  A    between atoms: _21  and  _22
REMARK   11  A    between atoms: _21  and  _24
REMARK   12  A    between atoms: _24  and  _25
REMARK   13  A    between atoms: _28  and  _30
REMARK   14  A    between atoms: _30  and  _31
REMARK   15  A    between atoms: _30  and  _33
REMARK   16  A    between atoms: _33  and  _34
REMARK   17  A    between atoms: _37  and  _39
REMARK   18  A    between atoms: _39  and  _40
REMARK   19  A    between atoms: _39  and  _42
REMARK   20  A    between atoms: _42  and  _43
REMARK   21  A    between atoms: _46  and  _48
REMARK   22  A    between atoms: _48  and  _49
REMARK   23  A    between atoms: _52  and  _54
REMARK   24  A    between atoms: _54  and  _55
REMARK   25  A    between atoms: _54  and  _57
REMARK   26  A    between atoms: _57  and  _58
REMARK   27  A    between atoms: _63  and  _64
REMARK   28  A    between atoms: _66  and  _68
REMARK   29  A    between atoms: _68  and  _69
REMARK   30  A    between atoms: _68  and  _71
REMARK   31  A    between atoms: _71  and  _72
REMARK   32  A    between atoms: _75  and  _77
REMARK   33  A    between atoms: _77  and  _78
REMARK   34  A    between atoms: _77  and  _80
REMARK   35  A    between atoms: _80  and  _81
REMARK   36  A    between atoms: _87  and  _89
REMARK   37  A    between atoms: _89  and  _90
REMARK   38  A    between atoms: _89  and  _92
REMARK   39  A    between atoms: _92  and  _93
REMARK   40  A    between atoms: _96  and  _98
REMARK   41  A    between atoms: _98  and  _99
REMARK   42  A    between atoms: _98  and  _101
REMARK   43  A    between atoms: _101  and  _102
REMARK   44  A    between atoms: _105  and  _107
REMARK   45  A    between atoms: _107  and  _108
REMARK   46  A    between atoms: _110  and  _112
REMARK   47  A    between atoms: _112  and  _113
REMARK   48  A    between atoms: _112  and  _115
REMARK   49  A    between atoms: _115  and  _116
REMARK   50  A    between atoms: _118  and  _120
REMARK   51  A    between atoms: _120  and  _121
REMARK   52  A    between atoms: _120  and  _123
REMARK   53  A    between atoms: _123  and  _124
REMARK   54  A    between atoms: _126  and  _128
REMARK   55  A    between atoms: _128  and  _129
REMARK   56  A    between atoms: _128  and  _131
REMARK   57  A    between atoms: _131  and  _132
REMARK   58  A    between atoms: _135  and  _137
REMARK   59  A    between atoms: _137  and  _138
REMARK   60  A    between atoms: _137  and  _140
REMARK   61  A    between atoms: _140  and  _141
REMARK   62  A    between atoms: _151  and  _153
REMARK   63  A    between atoms: _153  and  _154
REMARK   64  A    between atoms: _153  and  _156
REMARK   65  A    between atoms: _156  and  _157
REMARK   66  A    between atoms: _159  and  _161
REMARK   67  A    between atoms: _161  and  _162
REMARK   68  A    between atoms: _161  and  _164
REMARK   69  A    between atoms: _164  and  _165
REMARK   70  A    between atoms: _168  and  _170
REMARK   71  A    between atoms: _170  and  _171
REMARK   72  A    between atoms: _170  and  _173
REMARK   73  A    between atoms: _173  and  _174
REMARK   74  A    between atoms: _176  and  _178
REMARK   75  A    between atoms: _178  and  _179
REMARK   76  A    between atoms: _178  and  _181
REMARK   77  A    between atoms: _181  and  _182
REMARK   78  A    between atoms: _187  and  _188
REMARK   79  A    between atoms: _190  and  _192
REMARK   80  A    between atoms: _192  and  _193
REMARK   81  A    between atoms: _195  and  _197
REMARK   82  A    between atoms: _197  and  _198
REMARK   83  A    between atoms: _197  and  _200
REMARK   84  A    between atoms: _200  and  _201
REMARK   85  A    between atoms: _204  and  _206
REMARK   86  A    between atoms: _206  and  _207
REMARK   87  A    between atoms: _209  and  _211
REMARK   88  A    between atoms: _211  and  _212
REMARK   89  A    between atoms: _211  and  _214
REMARK   90  A    between atoms: _214  and  _215
REMARK   91  A    between atoms: _217  and  _219
REMARK   92  A    between atoms: _219  and  _220
REMARK   93  A    between atoms: _219  and  _222
REMARK   94  A    between atoms: _222  and  _223
REMARK   95  A    between atoms: _225  and  _227
REMARK   96  A    between atoms: _227  and  _228
REMARK   97  A    between atoms: _227  and  _230
REMARK   98  A    between atoms: _230  and  _231
REMARK   99  A    between atoms: _233  and  _235
REMARK  100  A    between atoms: _235  and  _236
REMARK  101  A    between atoms: _235  and  _238
REMARK  102  A    between atoms: _238  and  _239
REMARK  103  A    between atoms: _241  and  _243
REMARK  104  A    between atoms: _243  and  _244
REMARK  105  A    between atoms: _243  and  _246
REMARK  106  A    between atoms: _246  and  _247
REMARK  107  A    between atoms: _249  and  _251
REMARK  108  A    between atoms: _251  and  _252
REMARK  109  A    between atoms: _251  and  _254
REMARK  110  A    between atoms: _254  and  _255
REMARK  111  A    between atoms: _261  and  _263
REMARK  112  A    between atoms: _263  and  _264
REMARK  113  A    between atoms: _263  and  _266
REMARK  114  A    between atoms: _266  and  _267
REMARK  115  A    between atoms: _270  and  _272
REMARK  116  A    between atoms: _272  and  _273
REMARK  117  A    between atoms: _272  and  _275
REMARK  118  A    between atoms: _275  and  _276
REMARK  119  A    between atoms: _276  and  _277
REMARK  120  A    between atoms: _280  and  _282
REMARK  121  A    between atoms: _282  and  _283
REMARK  122  A    between atoms: _282  and  _285
REMARK  123  A    between atoms: _285  and  _286
REMARK  124  A    between atoms: _289  and  _291
REMARK  125  A    between atoms: _291  and  _292
REMARK  126  A    between atoms: _291  and  _294
REMARK  127  A    between atoms: _294  and  _295
REMARK  128  A    between atoms: _297  and  _299
REMARK  129  A    between atoms: _299  and  _300
REMARK  130  A    between atoms: _299  and  _302
REMARK  131  A    between atoms: _302  and  _303
REMARK  132  A    between atoms: _306  and  _308
REMARK  133  A    between atoms: _308  and  _309
REMARK  134  A    between atoms: _308  and  _311
REMARK  135  A    between atoms: _311  and  _312
REMARK  136  A    between atoms: _315  and  _317
REMARK  137  A    between atoms: _317  and  _318
REMARK  138  A    between atoms: _320  and  _322
REMARK  139  A    between atoms: _322  and  _323
REMARK  140  A    between atoms: _322  and  _325
REMARK  141  A    between atoms: _325  and  _326
REMARK  142  A    between atoms: _329  and  _331
REMARK  143  A    between atoms: _331  and  _332
REMARK  144  A    between atoms: _331  and  _334
REMARK  145  A    between atoms: _334  and  _335
REMARK  146  A    between atoms: _338  and  _340
REMARK  147  A    between atoms: _340  and  _341
REMARK  148  A    between atoms: _340  and  _343
REMARK  149  A    between atoms: _343  and  _344
REMARK  150  A    between atoms: _347  and  _349
REMARK  151  A    between atoms: _349  and  _350
REMARK  152  A    between atoms: _353  and  _355
REMARK  153  A    between atoms: _355  and  _356
REMARK  154  A    between atoms: _355  and  _358
REMARK  155  A    between atoms: _358  and  _359
REMARK  156  A    between atoms: _362  and  _364
REMARK  157  A    between atoms: _364  and  _365
REMARK  158  A    between atoms: _364  and  _367
REMARK  159  A    between atoms: _367  and  _368
REMARK  160  A    between atoms: _371  and  _373
REMARK  161  A    between atoms: _373  and  _374
REMARK  162  A    between atoms: _373  and  _376
REMARK  163  A    between atoms: _376  and  _377
REMARK  164  A    between atoms: _382  and  _384
REMARK  165  A    between atoms: _384  and  _385
REMARK  166  A    between atoms: _384  and  _387
REMARK  167  A    between atoms: _387  and  _388
REMARK  168  A    between atoms: _391  and  _393
REMARK  169  A    between atoms: _393  and  _394
REMARK  170  A    between atoms: _393  and  _396
REMARK  171  A    between atoms: _396  and  _397
REMARK  172  A    between atoms: _397  and  _398
REMARK  173  A    between atoms: _403  and  _405
REMARK  174  A    between atoms: _405  and  _406
REMARK  175  A    between atoms: _408  and  _410
REMARK  176  A    between atoms: _410  and  _411
REMARK  177  A    between atoms: _410  and  _413
REMARK  178  A    between atoms: _413  and  _414
REMARK  179  A    between atoms: _420  and  _422
REMARK  180  A    between atoms: _422  and  _423
REMARK  181  A    between atoms: _425  and  _427
REMARK  182  A    between atoms: _427  and  _428
REMARK  183  A    between atoms: _427  and  _430
REMARK  184  A    between atoms: _430  and  _431
REMARK  185  A    between atoms: _434  and  _436
REMARK  186  A    between atoms: _436  and  _437
REMARK  187  A    between atoms: _440  and  _442
REMARK  188  A    between atoms: _442  and  _443
REMARK  189  A    between atoms: _442  and  _445
REMARK  190  A    between atoms: _445  and  _446
REMARK  191  A    between atoms: _449  and  _451
REMARK  192  A    between atoms: _451  and  _452
REMARK  193  A    between atoms: _451  and  _454
REMARK  194  A    between atoms: _454  and  _455
REMARK  195  A    between atoms: _458  and  _460
REMARK  196  A    between atoms: _460  and  _461
REMARK  197  A    between atoms: _463  and  _465
REMARK  198  A    between atoms: _465  and  _466
REMARK  199  A    between atoms: _465  and  _468
REMARK  200  A    between atoms: _468  and  _469
REMARK  201  A    between atoms: _472  and  _474
REMARK  202  A    between atoms: _474  and  _475
REMARK  203  A    between atoms: _474  and  _477
REMARK  204  A    between atoms: _477  and  _478
REMARK  205  A    between atoms: _481  and  _483
REMARK  206  A    between atoms: _483  and  _484
REMARK  207  A    between atoms: _483  and  _486
REMARK  208  A    between atoms: _486  and  _487
REMARK  209  A    between atoms: _490  and  _492
REMARK  210  A    between atoms: _492  and  _493
REMARK  211  A    between atoms: _492  and  _495
REMARK  212  A    between atoms: _495  and  _496
REMARK  213  A    between atoms: _499  and  _501
REMARK  214  A    between atoms: _501  and  _502
REMARK  215  A    between atoms: _501  and  _504
REMARK  216  A    between atoms: _504  and  _505
REMARK  217  A    between atoms: _510  and  _511
REMARK  218  A    between atoms: _513  and  _515
REMARK  219  A    between atoms: _515  and  _516
REMARK  220  A    between atoms: _515  and  _518
REMARK  221  A    between atoms: _521  and  _523
REMARK  222  A    between atoms: _523  and  _524
REMARK  223  A    between atoms: _526  and  _528
REMARK  224  A    between atoms: _528  and  _529
REMARK  225  A    between atoms: _528  and  _531
REMARK  226  A    between atoms: _531  and  _532
REMARK  227  A    between atoms: _538  and  _540
REMARK  228  A    between atoms: _540  and  _541
REMARK  229  A    between atoms: _543  and  _545
REMARK  230  A    between atoms: _545  and  _546
REMARK  231  A    between atoms: _545  and  _548
REMARK  232  A    between atoms: _548  and  _549
REMARK  233  A    between atoms: _555  and  _557
REMARK  234  A    between atoms: _557  and  _558
REMARK  235  A    between atoms: _560  and  _562
REMARK  236  A    between atoms: _562  and  _563
REMARK  237  A    between atoms: _565  and  _567
REMARK  238  A    between atoms: _567  and  _568
REMARK  239  A    between atoms: _567  and  _570
REMARK  240  A    between atoms: _570  and  _571
REMARK  241  A    between atoms: _571  and  _572
REMARK  242  A    between atoms: _577  and  _579
REMARK  243  A    between atoms: _579  and  _580
REMARK  244  A    between atoms: _579  and  _582
REMARK  245  A    between atoms: _582  and  _583
REMARK  246  A    between atoms: _585  and  _587
REMARK  247  A    between atoms: _587  and  _588
REMARK  248  A    between atoms: _587  and  _590
REMARK  249  A    between atoms: _590  and  _591
REMARK  250  A    between atoms: _593  and  _595
REMARK  251  A    between atoms: _595  and  _596
REMARK  252  A    between atoms: _598  and  _600
REMARK  253  A    between atoms: _600  and  _601
REMARK  254  A    between atoms: _600  and  _603
REMARK  255  A    between atoms: _603  and  _604
REMARK  256  A    between atoms: _607  and  _609
REMARK  257  A    between atoms: _609  and  _610
REMARK  258  A    between atoms: _612  and  _614
REMARK  259  A    between atoms: _614  and  _615
REMARK  260  A    between atoms: _614  and  _617
REMARK  261  A    between atoms: _617  and  _618
REMARK  262  A    between atoms: _621  and  _623
REMARK  263  A    between atoms: _623  and  _624
REMARK  264  A    between atoms: _623  and  _626
REMARK  265  A    between atoms: _626  and  _627
REMARK  266  A    between atoms: _632  and  _634
REMARK  267  A    between atoms: _634  and  _635
REMARK  268  A    between atoms: _634  and  _637
REMARK  269  A    between atoms: _637  and  _638
REMARK  270  A    between atoms: _641  and  _643
REMARK  271  A    between atoms: _643  and  _644
REMARK  272  A    between atoms: _643  and  _646
REMARK  273  A    between atoms: _646  and  _647
REMARK  274  A    between atoms: _653  and  _655
REMARK  275  A    between atoms: _655  and  _656
REMARK  276  A    between atoms: _658  and  _660
REMARK  277  A    between atoms: _660  and  _661
REMARK  278  A    between atoms: _660  and  _663
REMARK  279  A    between atoms: _663  and  _664
REMARK                            x       y       z     vdW  Elec       q    Type
REMARK                         _______ _______ _______ _____ _____    ______ ____
ROOT
ATOM      1  O   HOH     1       1.184  26.175  16.479  0.00  0.00    +0.000 OA
ENDROOT
TORSDOF 0
