REMARK  Name = ../refined-set-2016/2qd7/2qd7_pocket.pdb
REMARK  204 active torsions:
REMARK  status: ('A' for Active; 'I' for Inactive)
REMARK    1  A    between atoms: _1  and  _3
REMARK    2  A    between atoms: _3  and  _4
REMARK    3  A    between atoms: _3  and  _6
REMARK    4  A    between atoms: _6  and  _7
REMARK    5  A    between atoms: _7  and  _8
REMARK    6  A    between atoms: _8  and  _9
REMARK    7  A    between atoms: _18  and  _20
REMARK    8  A    between atoms: _20  and  _21
REMARK    9  A    between atoms: _20  and  _23
REMARK   10  A    between atoms: _23  and  _24
REMARK   11  A    between atoms: _27  and  _29
REMARK   12  A    between atoms: _29  and  _30
REMARK   13  A    between atoms: _29  and  _32
REMARK   14  A    between atoms: _32  and  _33
REMARK   15  A    between atoms: _36  and  _38
REMARK   16  A    between atoms: _38  and  _39
REMARK   17  A    between atoms: _38  and  _41
REMARK   18  A    between atoms: _41  and  _42
REMARK   19  A    between atoms: _45  and  _47
REMARK   20  A    between atoms: _47  and  _48
REMARK   21  A    between atoms: _47  and  _50
REMARK   22  A    between atoms: _50  and  _51
REMARK   23  A    between atoms: _54  and  _56
REMARK   24  A    between atoms: _56  and  _57
REMARK   25  A    between atoms: _59  and  _61
REMARK   26  A    between atoms: _61  and  _62
REMARK   27  A    between atoms: _65  and  _67
REMARK   28  A    between atoms: _67  and  _68
REMARK   29  A    between atoms: _67  and  _70
REMARK   30  A    between atoms: _70  and  _71
REMARK   31  A    between atoms: _74  and  _76
REMARK   32  A    between atoms: _76  and  _77
REMARK   33  A    between atoms: _76  and  _79
REMARK   34  A    between atoms: _79  and  _80
REMARK   35  A    between atoms: _83  and  _85
REMARK   36  A    between atoms: _85  and  _86
REMARK   37  A    between atoms: _85  and  _88
REMARK   38  A    between atoms: _88  and  _89
REMARK   39  A    between atoms: _92  and  _94
REMARK   40  A    between atoms: _94  and  _95
REMARK   41  A    between atoms: _94  and  _97
REMARK   42  A    between atoms: _100  and  _102
REMARK   43  A    between atoms: _102  and  _103
REMARK   44  A    between atoms: _102  and  _105
REMARK   45  A    between atoms: _105  and  _106
REMARK   46  A    between atoms: _106  and  _107
REMARK   47  A    between atoms: _107  and  _108
REMARK   48  A    between atoms: _108  and  _109
REMARK   49  A    between atoms: _113  and  _115
REMARK   50  A    between atoms: _115  and  _116
REMARK   51  A    between atoms: _115  and  _118
REMARK   52  A    between atoms: _118  and  _119
REMARK   53  A    between atoms: _119  and  _120
REMARK   54  A    between atoms: _122  and  _124
REMARK   55  A    between atoms: _124  and  _125
REMARK   56  A    between atoms: _124  and  _127
REMARK   57  A    between atoms: _127  and  _128
REMARK   58  A    between atoms: _131  and  _133
REMARK   59  A    between atoms: _133  and  _134
REMARK   60  A    between atoms: _136  and  _138
REMARK   61  A    between atoms: _138  and  _139
REMARK   62  A    between atoms: _141  and  _143
REMARK   63  A    between atoms: _143  and  _144
REMARK   64  A    between atoms: _143  and  _146
REMARK   65  A    between atoms: _146  and  _147
REMARK   66  A    between atoms: _150  and  _152
REMARK   67  A    between atoms: _152  and  _153
REMARK   68  A    between atoms: _155  and  _157
REMARK   69  A    between atoms: _157  and  _158
REMARK   70  A    between atoms: _160  and  _162
REMARK   71  A    between atoms: _162  and  _163
REMARK   72  A    between atoms: _162  and  _165
REMARK   73  A    between atoms: _165  and  _166
REMARK   74  A    between atoms: _172  and  _174
REMARK   75  A    between atoms: _174  and  _175
REMARK   76  A    between atoms: _174  and  _177
REMARK   77  A    between atoms: _177  and  _178
REMARK   78  A    between atoms: _181  and  _183
REMARK   79  A    between atoms: _183  and  _184
REMARK   80  A    between atoms: _183  and  _186
REMARK   81  A    between atoms: _186  and  _187
REMARK   82  A    between atoms: _190  and  _192
REMARK   83  A    between atoms: _192  and  _193
REMARK   84  A    between atoms: _192  and  _195
REMARK   85  A    between atoms: _195  and  _196
REMARK   86  A    between atoms: _200  and  _201
REMARK   87  A    between atoms: _206  and  _208
REMARK   88  A    between atoms: _208  and  _209
REMARK   89  A    between atoms: _212  and  _214
REMARK   90  A    between atoms: _214  and  _215
REMARK   91  A    between atoms: _214  and  _217
REMARK   92  A    between atoms: _217  and  _218
REMARK   93  A    between atoms: _223  and  _225
REMARK   94  A    between atoms: _225  and  _226
REMARK   95  A    between atoms: _225  and  _228
REMARK   96  A    between atoms: _228  and  _229
REMARK   97  A    between atoms: _232  and  _234
REMARK   98  A    between atoms: _234  and  _235
REMARK   99  A    between atoms: _234  and  _237
REMARK  100  A    between atoms: _237  and  _238
REMARK  101  A    between atoms: _241  and  _243
REMARK  102  A    between atoms: _243  and  _244
REMARK  103  A    between atoms: _246  and  _248
REMARK  104  A    between atoms: _248  and  _249
REMARK  105  A    between atoms: _248  and  _251
REMARK  106  A    between atoms: _251  and  _252
REMARK  107  A    between atoms: _252  and  _253
REMARK  108  A    between atoms: _253  and  _254
REMARK  109  A    between atoms: _263  and  _265
REMARK  110  A    between atoms: _265  and  _266
REMARK  111  A    between atoms: _265  and  _268
REMARK  112  A    between atoms: _268  and  _269
REMARK  113  A    between atoms: _274  and  _276
REMARK  114  A    between atoms: _276  and  _277
REMARK  115  A    between atoms: _276  and  _279
REMARK  116  A    between atoms: _279  and  _280
REMARK  117  A    between atoms: _280  and  _281
REMARK  118  A    between atoms: _281  and  _282
REMARK  119  A    between atoms: _291  and  _293
REMARK  120  A    between atoms: _293  and  _294
REMARK  121  A    between atoms: _293  and  _296
REMARK  122  A    between atoms: _296  and  _297
REMARK  123  A    between atoms: _300  and  _302
REMARK  124  A    between atoms: _302  and  _303
REMARK  125  A    between atoms: _302  and  _305
REMARK  126  A    between atoms: _305  and  _306
REMARK  127  A    between atoms: _309  and  _311
REMARK  128  A    between atoms: _311  and  _312
REMARK  129  A    between atoms: _311  and  _314
REMARK  130  A    between atoms: _314  and  _315
REMARK  131  A    between atoms: _318  and  _320
REMARK  132  A    between atoms: _320  and  _321
REMARK  133  A    between atoms: _320  and  _323
REMARK  134  A    between atoms: _323  and  _324
REMARK  135  A    between atoms: _327  and  _329
REMARK  136  A    between atoms: _329  and  _330
REMARK  137  A    between atoms: _332  and  _334
REMARK  138  A    between atoms: _334  and  _335
REMARK  139  A    between atoms: _338  and  _340
REMARK  140  A    between atoms: _340  and  _341
REMARK  141  A    between atoms: _340  and  _343
REMARK  142  A    between atoms: _343  and  _344
REMARK  143  A    between atoms: _347  and  _349
REMARK  144  A    between atoms: _349  and  _350
REMARK  145  A    between atoms: _349  and  _352
REMARK  146  A    between atoms: _352  and  _353
REMARK  147  A    between atoms: _356  and  _358
REMARK  148  A    between atoms: _358  and  _359
REMARK  149  A    between atoms: _358  and  _361
REMARK  150  A    between atoms: _361  and  _362
REMARK  151  A    between atoms: _365  and  _367
REMARK  152  A    between atoms: _367  and  _368
REMARK  153  A    between atoms: _367  and  _370
REMARK  154  A    between atoms: _373  and  _375
REMARK  155  A    between atoms: _375  and  _376
REMARK  156  A    between atoms: _375  and  _378
REMARK  157  A    between atoms: _378  and  _379
REMARK  158  A    between atoms: _382  and  _384
REMARK  159  A    between atoms: _384  and  _385
REMARK  160  A    between atoms: _387  and  _389
REMARK  161  A    between atoms: _389  and  _390
REMARK  162  A    between atoms: _392  and  _394
REMARK  163  A    between atoms: _394  and  _395
REMARK  164  A    between atoms: _394  and  _397
REMARK  165  A    between atoms: _397  and  _398
REMARK  166  A    between atoms: _401  and  _403
REMARK  167  A    between atoms: _403  and  _404
REMARK  168  A    between atoms: _406  and  _408
REMARK  169  A    between atoms: _408  and  _409
REMARK  170  A    between atoms: _411  and  _413
REMARK  171  A    between atoms: _413  and  _414
REMARK  172  A    between atoms: _413  and  _416
REMARK  173  A    between atoms: _416  and  _417
REMARK  174  A    between atoms: _420  and  _422
REMARK  175  A    between atoms: _422  and  _423
REMARK  176  A    between atoms: _422  and  _425
REMARK  177  A    between atoms: _425  and  _426
REMARK  178  A    between atoms: _430  and  _431
REMARK  179  A    between atoms: _436  and  _438
REMARK  180  A    between atoms: _438  and  _439
REMARK  181  A    between atoms: _442  and  _444
REMARK  182  A    between atoms: _444  and  _445
REMARK  183  A    between atoms: _444  and  _447
REMARK  184  A    between atoms: _447  and  _448
REMARK  185  A    between atoms: _453  and  _455
REMARK  186  A    between atoms: _455  and  _456
REMARK  187  A    between atoms: _455  and  _458
REMARK  188  A    between atoms: _458  and  _459
REMARK  189  A    between atoms: _462  and  _464
REMARK  190  A    between atoms: _464  and  _465
REMARK  191  A    between atoms: _464  and  _467
REMARK  192  A    between atoms: _467  and  _468
REMARK  193  A    between atoms: _471  and  _473
REMARK  194  A    between atoms: _473  and  _474
REMARK  195  A    between atoms: _476  and  _478
REMARK  196  A    between atoms: _478  and  _479
REMARK  197  A    between atoms: _478  and  _481
REMARK  198  A    between atoms: _481  and  _482
REMARK  199  A    between atoms: _482  and  _483
REMARK  200  A    between atoms: _483  and  _484
REMARK  201  A    between atoms: _493  and  _495
REMARK  202  A    between atoms: _495  and  _496
REMARK  203  A    between atoms: _495  and  _498
REMARK  204  A    between atoms: _498  and  _499
REMARK                            x       y       z     vdW  Elec       q    Type
REMARK                         _______ _______ _______ _____ _____    ______ ____
ROOT
ATOM      1  NE  ARG A   1      18.691  19.958  11.546  0.00  0.00    -0.265 N 
ATOM      2  HE  ARG A   1      19.597  20.313  11.913  0.00  0.00    +0.259 HD
ATOM      3  CZ  ARG A   1      18.523  20.025  10.255  0.00  0.00    +0.342 C 
ATOM      4  NH2 ARG A   1      17.443  19.622   9.641  0.00  0.00    -0.292 N 
ATOM      5 HH21 ARG A   1      16.654  19.220  10.186  0.00  0.00    +0.255 HD
ATOM      6 HH22 ARG A   1      17.372  19.703   8.607  0.00  0.00    +0.255 HD
ATOM      7  NH1 ARG A   1      19.521  20.533   9.558  0.00  0.00    -0.292 N 
ATOM      8 HH11 ARG A   1      20.383  20.854  10.043  0.00  0.00    +0.255 HD
ATOM      9 HH12 ARG A   1      19.446  20.612   8.524  0.00  0.00    +0.255 HD
ENDROOT
BRANCH   1  10
ATOM     10  CD  ARG A   1      17.746  19.439  12.537  0.00  0.00    +0.174 C 
BRANCH  10  11
ATOM     11  CG  ARG A   1      18.496  19.103  13.817  0.00  0.00    +0.045 C 
BRANCH  11  12
ATOM     12  CB  ARG A   1      17.545  18.653  14.902  0.00  0.00    +0.029 C 
BRANCH  12  13
ATOM     13  CA  ARG A   1      18.299  18.047  16.113  0.00  0.00    +0.133 C 
BRANCH  13  14
ATOM     14  N   ARG A   1      18.957  16.810  15.734  0.00  0.00    -0.239 NA
ATOM     15  H   ARG A   1      18.877  16.460  14.758  0.00  0.00    +0.142 HD
ENDBRANCH  13  14
BRANCH  13  16
ATOM     16  C   ARG A   1      17.345  17.829  17.248  0.00  0.00    +0.224 C 
ATOM     17  O   ARG A   1      16.610  16.819  17.211  0.00  0.00    -0.287 OA
ENDBRANCH  13  16
ENDBRANCH  12  13
ENDBRANCH  11  12
ENDBRANCH  10  11
ENDBRANCH   1  10
TORSDOF 6
REMARK  Name = ../refined-set-2016/2qd7/2qd7_pocket.pdb
REMARK  204 active torsions:
REMARK  status: ('A' for Active; 'I' for Inactive)
REMARK    1  A    between atoms: _1  and  _3
REMARK    2  A    between atoms: _3  and  _4
REMARK    3  A    between atoms: _3  and  _6
REMARK    4  A    between atoms: _6  and  _7
REMARK    5  A    between atoms: _7  and  _8
REMARK    6  A    between atoms: _8  and  _9
REMARK    7  A    between atoms: _18  and  _20
REMARK    8  A    between atoms: _20  and  _21
REMARK    9  A    between atoms: _20  and  _23
REMARK   10  A    between atoms: _23  and  _24
REMARK   11  A    between atoms: _27  and  _29
REMARK   12  A    between atoms: _29  and  _30
REMARK   13  A    between atoms: _29  and  _32
REMARK   14  A    between atoms: _32  and  _33
REMARK   15  A    between atoms: _36  and  _38
REMARK   16  A    between atoms: _38  and  _39
REMARK   17  A    between atoms: _38  and  _41
REMARK   18  A    between atoms: _41  and  _42
REMARK   19  A    between atoms: _45  and  _47
REMARK   20  A    between atoms: _47  and  _48
REMARK   21  A    between atoms: _47  and  _50
REMARK   22  A    between atoms: _50  and  _51
REMARK   23  A    between atoms: _54  and  _56
REMARK   24  A    between atoms: _56  and  _57
REMARK   25  A    between atoms: _59  and  _61
REMARK   26  A    between atoms: _61  and  _62
REMARK   27  A    between atoms: _65  and  _67
REMARK   28  A    between atoms: _67  and  _68
REMARK   29  A    between atoms: _67  and  _70
REMARK   30  A    between atoms: _70  and  _71
REMARK   31  A    between atoms: _74  and  _76
REMARK   32  A    between atoms: _76  and  _77
REMARK   33  A    between atoms: _76  and  _79
REMARK   34  A    between atoms: _79  and  _80
REMARK   35  A    between atoms: _83  and  _85
REMARK   36  A    between atoms: _85  and  _86
REMARK   37  A    between atoms: _85  and  _88
REMARK   38  A    between atoms: _88  and  _89
REMARK   39  A    between atoms: _92  and  _94
REMARK   40  A    between atoms: _94  and  _95
REMARK   41  A    between atoms: _94  and  _97
REMARK   42  A    between atoms: _100  and  _102
REMARK   43  A    between atoms: _102  and  _103
REMARK   44  A    between atoms: _102  and  _105
REMARK   45  A    between atoms: _105  and  _106
REMARK   46  A    between atoms: _106  and  _107
REMARK   47  A    between atoms: _107  and  _108
REMARK   48  A    between atoms: _108  and  _109
REMARK   49  A    between atoms: _113  and  _115
REMARK   50  A    between atoms: _115  and  _116
REMARK   51  A    between atoms: _115  and  _118
REMARK   52  A    between atoms: _118  and  _119
REMARK   53  A    between atoms: _119  and  _120
REMARK   54  A    between atoms: _122  and  _124
REMARK   55  A    between atoms: _124  and  _125
REMARK   56  A    between atoms: _124  and  _127
REMARK   57  A    between atoms: _127  and  _128
REMARK   58  A    between atoms: _131  and  _133
REMARK   59  A    between atoms: _133  and  _134
REMARK   60  A    between atoms: _136  and  _138
REMARK   61  A    between atoms: _138  and  _139
REMARK   62  A    between atoms: _141  and  _143
REMARK   63  A    between atoms: _143  and  _144
REMARK   64  A    between atoms: _143  and  _146
REMARK   65  A    between atoms: _146  and  _147
REMARK   66  A    between atoms: _150  and  _152
REMARK   67  A    between atoms: _152  and  _153
REMARK   68  A    between atoms: _155  and  _157
REMARK   69  A    between atoms: _157  and  _158
REMARK   70  A    between atoms: _160  and  _162
REMARK   71  A    between atoms: _162  and  _163
REMARK   72  A    between atoms: _162  and  _165
REMARK   73  A    between atoms: _165  and  _166
REMARK   74  A    between atoms: _172  and  _174
REMARK   75  A    between atoms: _174  and  _175
REMARK   76  A    between atoms: _174  and  _177
REMARK   77  A    between atoms: _177  and  _178
REMARK   78  A    between atoms: _181  and  _183
REMARK   79  A    between atoms: _183  and  _184
REMARK   80  A    between atoms: _183  and  _186
REMARK   81  A    between atoms: _186  and  _187
REMARK   82  A    between atoms: _190  and  _192
REMARK   83  A    between atoms: _192  and  _193
REMARK   84  A    between atoms: _192  and  _195
REMARK   85  A    between atoms: _195  and  _196
REMARK   86  A    between atoms: _200  and  _201
REMARK   87  A    between atoms: _206  and  _208
REMARK   88  A    between atoms: _208  and  _209
REMARK   89  A    between atoms: _212  and  _214
REMARK   90  A    between atoms: _214  and  _215
REMARK   91  A    between atoms: _214  and  _217
REMARK   92  A    between atoms: _217  and  _218
REMARK   93  A    between atoms: _223  and  _225
REMARK   94  A    between atoms: _225  and  _226
REMARK   95  A    between atoms: _225  and  _228
REMARK   96  A    between atoms: _228  and  _229
REMARK   97  A    between atoms: _232  and  _234
REMARK   98  A    between atoms: _234  and  _235
REMARK   99  A    between atoms: _234  and  _237
REMARK  100  A    between atoms: _237  and  _238
REMARK  101  A    between atoms: _241  and  _243
REMARK  102  A    between atoms: _243  and  _244
REMARK  103  A    between atoms: _246  and  _248
REMARK  104  A    between atoms: _248  and  _249
REMARK  105  A    between atoms: _248  and  _251
REMARK  106  A    between atoms: _251  and  _252
REMARK  107  A    between atoms: _252  and  _253
REMARK  108  A    between atoms: _253  and  _254
REMARK  109  A    between atoms: _263  and  _265
REMARK  110  A    between atoms: _265  and  _266
REMARK  111  A    between atoms: _265  and  _268
REMARK  112  A    between atoms: _268  and  _269
REMARK  113  A    between atoms: _274  and  _276
REMARK  114  A    between atoms: _276  and  _277
REMARK  115  A    between atoms: _276  and  _279
REMARK  116  A    between atoms: _279  and  _280
REMARK  117  A    between atoms: _280  and  _281
REMARK  118  A    between atoms: _281  and  _282
REMARK  119  A    between atoms: _291  and  _293
REMARK  120  A    between atoms: _293  and  _294
REMARK  121  A    between atoms: _293  and  _296
REMARK  122  A    between atoms: _296  and  _297
REMARK  123  A    between atoms: _300  and  _302
REMARK  124  A    between atoms: _302  and  _303
REMARK  125  A    between atoms: _302  and  _305
REMARK  126  A    between atoms: _305  and  _306
REMARK  127  A    between atoms: _309  and  _311
REMARK  128  A    between atoms: _311  and  _312
REMARK  129  A    between atoms: _311  and  _314
REMARK  130  A    between atoms: _314  and  _315
REMARK  131  A    between atoms: _318  and  _320
REMARK  132  A    between atoms: _320  and  _321
REMARK  133  A    between atoms: _320  and  _323
REMARK  134  A    between atoms: _323  and  _324
REMARK  135  A    between atoms: _327  and  _329
REMARK  136  A    between atoms: _329  and  _330
REMARK  137  A    between atoms: _332  and  _334
REMARK  138  A    between atoms: _334  and  _335
REMARK  139  A    between atoms: _338  and  _340
REMARK  140  A    between atoms: _340  and  _341
REMARK  141  A    between atoms: _340  and  _343
REMARK  142  A    between atoms: _343  and  _344
REMARK  143  A    between atoms: _347  and  _349
REMARK  144  A    between atoms: _349  and  _350
REMARK  145  A    between atoms: _349  and  _352
REMARK  146  A    between atoms: _352  and  _353
REMARK  147  A    between atoms: _356  and  _358
REMARK  148  A    between atoms: _358  and  _359
REMARK  149  A    between atoms: _358  and  _361
REMARK  150  A    between atoms: _361  and  _362
REMARK  151  A    between atoms: _365  and  _367
REMARK  152  A    between atoms: _367  and  _368
REMARK  153  A    between atoms: _367  and  _370
REMARK  154  A    between atoms: _373  and  _375
REMARK  155  A    between atoms: _375  and  _376
REMARK  156  A    between atoms: _375  and  _378
REMARK  157  A    between atoms: _378  and  _379
REMARK  158  A    between atoms: _382  and  _384
REMARK  159  A    between atoms: _384  and  _385
REMARK  160  A    between atoms: _387  and  _389
REMARK  161  A    between atoms: _389  and  _390
REMARK  162  A    between atoms: _392  and  _394
REMARK  163  A    between atoms: _394  and  _395
REMARK  164  A    between atoms: _394  and  _397
REMARK  165  A    between atoms: _397  and  _398
REMARK  166  A    between atoms: _401  and  _403
REMARK  167  A    between atoms: _403  and  _404
REMARK  168  A    between atoms: _406  and  _408
REMARK  169  A    between atoms: _408  and  _409
REMARK  170  A    between atoms: _411  and  _413
REMARK  171  A    between atoms: _413  and  _414
REMARK  172  A    between atoms: _413  and  _416
REMARK  173  A    between atoms: _416  and  _417
REMARK  174  A    between atoms: _420  and  _422
REMARK  175  A    between atoms: _422  and  _423
REMARK  176  A    between atoms: _422  and  _425
REMARK  177  A    between atoms: _425  and  _426
REMARK  178  A    between atoms: _430  and  _431
REMARK  179  A    between atoms: _436  and  _438
REMARK  180  A    between atoms: _438  and  _439
REMARK  181  A    between atoms: _442  and  _444
REMARK  182  A    between atoms: _444  and  _445
REMARK  183  A    between atoms: _444  and  _447
REMARK  184  A    between atoms: _447  and  _448
REMARK  185  A    between atoms: _453  and  _455
REMARK  186  A    between atoms: _455  and  _456
REMARK  187  A    between atoms: _455  and  _458
REMARK  188  A    between atoms: _458  and  _459
REMARK  189  A    between atoms: _462  and  _464
REMARK  190  A    between atoms: _464  and  _465
REMARK  191  A    between atoms: _464  and  _467
REMARK  192  A    between atoms: _467  and  _468
REMARK  193  A    between atoms: _471  and  _473
REMARK  194  A    between atoms: _473  and  _474
REMARK  195  A    between atoms: _476  and  _478
REMARK  196  A    between atoms: _478  and  _479
REMARK  197  A    between atoms: _478  and  _481
REMARK  198  A    between atoms: _481  and  _482
REMARK  199  A    between atoms: _482  and  _483
REMARK  200  A    between atoms: _483  and  _484
REMARK  201  A    between atoms: _493  and  _495
REMARK  202  A    between atoms: _495  and  _496
REMARK  203  A    between atoms: _495  and  _498
REMARK  204  A    between atoms: _498  and  _499
REMARK                            x       y       z     vdW  Elec       q    Type
REMARK                         _______ _______ _______ _____ _____    ______ ____
ROOT
ATOM      1  C   GLY A   5      19.800  31.065  20.662  0.00  0.00    +0.243 C 
ATOM      2  N   ALA A   6      18.524  30.843  20.896  0.00  0.00    -0.297 N 
ATOM      3  H   ALA A   6      18.261  29.964  21.385  0.00  0.00    +0.150 HD
ATOM      4  O   GLY A   5      20.219  32.089  20.127  0.00  0.00    -0.273 OA
ENDROOT
BRANCH   2   5
ATOM      5  CA  ALA A   6      17.474  31.746  20.514  0.00  0.00    +0.149 C 
ATOM      6  CB  ALA A   6      16.355  30.931  19.855  0.00  0.00    +0.031 C 
BRANCH   5   7
ATOM      7  C   ALA A   6      16.915  32.497  21.703  0.00  0.00    +0.241 C 
ATOM      8  O   ALA A   6      16.429  31.867  22.652  0.00  0.00    -0.273 OA
ATOM      9  N   ASP A   7      16.956  33.844  21.688  0.00  0.00    -0.297 N 
ATOM     10  H   ASP A   7      17.434  34.346  20.913  0.00  0.00    +0.150 HD
BRANCH   9  11
ATOM     11  CA  ASP A   7      16.323  34.591  22.770  0.00  0.00    +0.160 C 
BRANCH  11  12
ATOM     12  C   ASP A   7      14.809  34.434  22.771  0.00  0.00    +0.241 C 
ATOM     13  O   ASP A   7      14.186  34.363  23.825  0.00  0.00    -0.273 OA
ATOM     14  N   ASP A   8      14.262  34.401  21.575  0.00  0.00    -0.297 N 
ATOM     15  H   ASP A   8      14.906  34.342  20.760  0.00  0.00    +0.150 HD
BRANCH  14  16
ATOM     16  CA  ASP A   8      12.849  34.439  21.295  0.00  0.00    +0.160 C 
BRANCH  16  17
ATOM     17  C   ASP A   8      12.398  33.171  20.570  0.00  0.00    +0.241 C 
ATOM     18  N   THR A   9      11.111  32.922  20.578  0.00  0.00    -0.295 N 
ATOM     19  H   THR A   9      10.503  33.591  21.091  0.00  0.00    +0.150 HD
ATOM     20  O   ASP A   8      13.233  32.477  19.996  0.00  0.00    -0.273 OA
BRANCH  18  21
ATOM     21  CA  THR A   9      10.465  31.807  19.941  0.00  0.00    +0.176 C 
BRANCH  21  22
ATOM     22  C   THR A   9       9.927  32.261  18.571  0.00  0.00    +0.243 C 
ATOM     23  O   THR A   9       9.226  33.285  18.529  0.00  0.00    -0.273 OA
ATOM     24  N   VAL A  10      10.236  31.511  17.550  0.00  0.00    -0.298 N 
ATOM     25  H   VAL A  10      10.748  30.624  17.731  0.00  0.00    +0.150 HD
BRANCH  24  26
ATOM     26  CA  VAL A  10       9.910  31.839  16.185  0.00  0.00    +0.137 C 
BRANCH  26  27
ATOM     27  CB  VAL A  10      11.175  32.245  15.351  0.00  0.00    +0.026 C 
ATOM     28  CG2 VAL A  10      12.108  33.118  16.186  0.00  0.00    +0.002 C 
ATOM     29  CG1 VAL A  10      10.725  32.937  14.078  0.00  0.00    +0.002 C 
ENDBRANCH  26  27
BRANCH  26  30
ATOM     30  C   VAL A  10       9.224  30.668  15.546  0.00  0.00    +0.227 C 
ATOM     31  O   VAL A  10       9.776  29.585  15.518  0.00  0.00    -0.286 OA
ENDBRANCH  26  30
ENDBRANCH  24  26
ENDBRANCH  21  22
BRANCH  21  32
ATOM     32  CB  THR A   9       9.363  31.292  20.854  0.00  0.00    +0.137 C 
ATOM     33  CG2 THR A   9       8.504  30.219  20.180  0.00  0.00    +0.034 C 
BRANCH  32  34
ATOM     34  OG1 THR A   9       9.986  30.684  22.010  0.00  0.00    -0.382 OA
ATOM     35  HG1 THR A   9      10.533  31.360  22.482  0.00  0.00    +0.210 HD
ENDBRANCH  32  34
ENDBRANCH  21  32
ENDBRANCH  18  21
ENDBRANCH  16  17
BRANCH  16  36
ATOM     36  CB  ASP A   8      12.499  35.678  20.429  0.00  0.00    +0.143 C 
BRANCH  36  37
ATOM     37  CG  ASP A   8      12.970  37.001  20.945  0.00  0.00    +0.367 C 
ATOM     38  OD2 ASP A   8      12.979  37.172  22.174  0.00  0.00    -0.246 OA
ATOM     39  OD1 ASP A   8      13.338  37.885  20.099  0.00  0.00    -0.246 OA
ENDBRANCH  36  37
ENDBRANCH  16  36
ENDBRANCH  14  16
ENDBRANCH  11  12
BRANCH  11  40
ATOM     40  CB  ASP A   7      16.644  36.083  22.651  0.00  0.00    +0.143 C 
BRANCH  40  41
ATOM     41  CG  ASP A   7      18.076  36.502  22.784  0.00  0.00    +0.367 C 
ATOM     42  OD2 ASP A   7      18.912  35.767  23.347  0.00  0.00    -0.246 OA
ATOM     43  OD1 ASP A   7      18.386  37.624  22.313  0.00  0.00    -0.246 OA
ENDBRANCH  40  41
ENDBRANCH  11  40
ENDBRANCH   9  11
ENDBRANCH   5   7
ENDBRANCH   2   5
BRANCH   1  44
ATOM     44  CA  GLY A   5      20.814  29.997  21.075  0.00  0.00    +0.176 C 
BRANCH  44  47
ATOM     45  C   THR A   4      20.003  28.821  23.031  0.00  0.00    +0.243 C 
ATOM     46  O   THR A   4      20.302  29.769  23.776  0.00  0.00    -0.273 OA
ATOM     47  N   GLY A   5      20.238  28.845  21.718  0.00  0.00    -0.295 N 
ATOM     48  H   GLY A   5      19.999  28.011  21.145  0.00  0.00    +0.150 HD
BRANCH  45  49
ATOM     49  CA  THR A   4      19.366  27.581  23.614  0.00  0.00    +0.176 C 
BRANCH  49  51
ATOM     50  C   ASP A   3      17.640  27.171  21.952  0.00  0.00    +0.241 C 
ATOM     51  N   THR A   4      18.719  26.730  22.627  0.00  0.00    -0.295 N 
ATOM     52  H   THR A   4      19.091  25.777  22.442  0.00  0.00    +0.150 HD
ATOM     53  O   ASP A   3      17.146  28.277  22.126  0.00  0.00    -0.273 OA
BRANCH  50  54
ATOM     54  CA  ASP A   3      17.065  26.189  20.917  0.00  0.00    +0.160 C 
BRANCH  54  56
ATOM     55  C   LEU A   2      15.938  24.095  21.429  0.00  0.00    +0.241 C 
ATOM     56  N   ASP A   3      15.920  25.426  21.385  0.00  0.00    -0.297 N 
ATOM     57  H   ASP A   3      15.065  25.932  21.693  0.00  0.00    +0.150 HD
ATOM     58  O   LEU A   2      16.957  23.407  21.304  0.00  0.00    -0.273 OA
BRANCH  55  59
ATOM     59  CA  LEU A   2      14.596  23.392  21.595  0.00  0.00    +0.149 C 
BRANCH  59  61
ATOM     60  C   LEU A   1      13.730  23.514  19.322  0.00  0.00    +0.238 C 
ATOM     61  N   LEU A   2      14.247  22.789  20.295  0.00  0.00    -0.297 N 
ATOM     62  H   LEU A   2      14.412  21.773  20.143  0.00  0.00    +0.150 HD
ATOM     63  O   LEU A   1      13.319  24.669  19.505  0.00  0.00    -0.274 OA
BRANCH  60  64
ATOM     64  CA  LEU A   1      13.706  22.912  17.930  0.00  0.00    +0.145 C 
BRANCH  64  65
ATOM     65  N   LEU A   1      12.418  23.034  17.294  0.00  0.00    -0.238 NA
ATOM     66  H   LEU A   1      12.284  23.809  16.613  0.00  0.00    +0.142 HD
ENDBRANCH  64  65
BRANCH  64  67
ATOM     67  CB  LEU A   1      14.755  23.652  17.134  0.00  0.00    +0.026 C 
BRANCH  67  68
ATOM     68  CG  LEU A   1      15.112  23.190  15.809  0.00  0.00    +0.002 C 
ATOM     69  CD2 LEU A   1      15.972  21.895  15.882  0.00  0.00    +0.000 C 
ATOM     70  CD1 LEU A   1      15.894  24.277  15.051  0.00  0.00    +0.000 C 
ENDBRANCH  67  68
ENDBRANCH  64  67
ENDBRANCH  60  64
ENDBRANCH  59  61
BRANCH  59  71
ATOM     71  CB  LEU A   2      14.647  22.323  22.648  0.00  0.00    +0.029 C 
BRANCH  71  72
ATOM     72  CG  LEU A   2      13.352  21.535  22.899  0.00  0.00    +0.002 C 
ATOM     73  CD2 LEU A   2      13.697  20.507  23.981  0.00  0.00    +0.000 C 
ATOM     74  CD1 LEU A   2      12.176  22.432  23.248  0.00  0.00    +0.000 C 
ENDBRANCH  71  72
ENDBRANCH  59  71
ENDBRANCH  55  59
ENDBRANCH  54  56
BRANCH  54  75
ATOM     75  CB  ASP A   3      16.661  26.952  19.674  0.00  0.00    +0.143 C 
BRANCH  75  76
ATOM     76  CG  ASP A   3      17.848  27.537  19.009  0.00  0.00    +0.367 C 
ATOM     77  OD2 ASP A   3      19.009  27.459  19.558  0.00  0.00    -0.246 OA
ATOM     78  OD1 ASP A   3      17.670  28.089  17.883  0.00  0.00    -0.246 OA
ENDBRANCH  75  76
ENDBRANCH  54  75
ENDBRANCH  50  54
ENDBRANCH  49  51
BRANCH  49  79
ATOM     79  CB  THR A   4      20.453  26.801  24.358  0.00  0.00    +0.137 C 
ATOM     80  CG2 THR A   4      19.839  25.583  25.036  0.00  0.00    +0.034 C 
BRANCH  79  81
ATOM     81  OG1 THR A   4      21.466  26.350  23.453  0.00  0.00    -0.382 OA
ATOM     82  HG1 THR A   4      21.881  27.131  23.008  0.00  0.00    +0.210 HD
ENDBRANCH  79  81
ENDBRANCH  49  79
ENDBRANCH  45  49
ENDBRANCH  44  47
ENDBRANCH   1  44
TORSDOF 35
REMARK  Name = ../refined-set-2016/2qd7/2qd7_pocket.pdb
REMARK  204 active torsions:
REMARK  status: ('A' for Active; 'I' for Inactive)
REMARK    1  A    between atoms: _1  and  _3
REMARK    2  A    between atoms: _3  and  _4
REMARK    3  A    between atoms: _3  and  _6
REMARK    4  A    between atoms: _6  and  _7
REMARK    5  A    between atoms: _7  and  _8
REMARK    6  A    between atoms: _8  and  _9
REMARK    7  A    between atoms: _18  and  _20
REMARK    8  A    between atoms: _20  and  _21
REMARK    9  A    between atoms: _20  and  _23
REMARK   10  A    between atoms: _23  and  _24
REMARK   11  A    between atoms: _27  and  _29
REMARK   12  A    between atoms: _29  and  _30
REMARK   13  A    between atoms: _29  and  _32
REMARK   14  A    between atoms: _32  and  _33
REMARK   15  A    between atoms: _36  and  _38
REMARK   16  A    between atoms: _38  and  _39
REMARK   17  A    between atoms: _38  and  _41
REMARK   18  A    between atoms: _41  and  _42
REMARK   19  A    between atoms: _45  and  _47
REMARK   20  A    between atoms: _47  and  _48
REMARK   21  A    between atoms: _47  and  _50
REMARK   22  A    between atoms: _50  and  _51
REMARK   23  A    between atoms: _54  and  _56
REMARK   24  A    between atoms: _56  and  _57
REMARK   25  A    between atoms: _59  and  _61
REMARK   26  A    between atoms: _61  and  _62
REMARK   27  A    between atoms: _65  and  _67
REMARK   28  A    between atoms: _67  and  _68
REMARK   29  A    between atoms: _67  and  _70
REMARK   30  A    between atoms: _70  and  _71
REMARK   31  A    between atoms: _74  and  _76
REMARK   32  A    between atoms: _76  and  _77
REMARK   33  A    between atoms: _76  and  _79
REMARK   34  A    between atoms: _79  and  _80
REMARK   35  A    between atoms: _83  and  _85
REMARK   36  A    between atoms: _85  and  _86
REMARK   37  A    between atoms: _85  and  _88
REMARK   38  A    between atoms: _88  and  _89
REMARK   39  A    between atoms: _92  and  _94
REMARK   40  A    between atoms: _94  and  _95
REMARK   41  A    between atoms: _94  and  _97
REMARK   42  A    between atoms: _100  and  _102
REMARK   43  A    between atoms: _102  and  _103
REMARK   44  A    between atoms: _102  and  _105
REMARK   45  A    between atoms: _105  and  _106
REMARK   46  A    between atoms: _106  and  _107
REMARK   47  A    between atoms: _107  and  _108
REMARK   48  A    between atoms: _108  and  _109
REMARK   49  A    between atoms: _113  and  _115
REMARK   50  A    between atoms: _115  and  _116
REMARK   51  A    between atoms: _115  and  _118
REMARK   52  A    between atoms: _118  and  _119
REMARK   53  A    between atoms: _119  and  _120
REMARK   54  A    between atoms: _122  and  _124
REMARK   55  A    between atoms: _124  and  _125
REMARK   56  A    between atoms: _124  and  _127
REMARK   57  A    between atoms: _127  and  _128
REMARK   58  A    between atoms: _131  and  _133
REMARK   59  A    between atoms: _133  and  _134
REMARK   60  A    between atoms: _136  and  _138
REMARK   61  A    between atoms: _138  and  _139
REMARK   62  A    between atoms: _141  and  _143
REMARK   63  A    between atoms: _143  and  _144
REMARK   64  A    between atoms: _143  and  _146
REMARK   65  A    between atoms: _146  and  _147
REMARK   66  A    between atoms: _150  and  _152
REMARK   67  A    between atoms: _152  and  _153
REMARK   68  A    between atoms: _155  and  _157
REMARK   69  A    between atoms: _157  and  _158
REMARK   70  A    between atoms: _160  and  _162
REMARK   71  A    between atoms: _162  and  _163
REMARK   72  A    between atoms: _162  and  _165
REMARK   73  A    between atoms: _165  and  _166
REMARK   74  A    between atoms: _172  and  _174
REMARK   75  A    between atoms: _174  and  _175
REMARK   76  A    between atoms: _174  and  _177
REMARK   77  A    between atoms: _177  and  _178
REMARK   78  A    between atoms: _181  and  _183
REMARK   79  A    between atoms: _183  and  _184
REMARK   80  A    between atoms: _183  and  _186
REMARK   81  A    between atoms: _186  and  _187
REMARK   82  A    between atoms: _190  and  _192
REMARK   83  A    between atoms: _192  and  _193
REMARK   84  A    between atoms: _192  and  _195
REMARK   85  A    between atoms: _195  and  _196
REMARK   86  A    between atoms: _200  and  _201
REMARK   87  A    between atoms: _206  and  _208
REMARK   88  A    between atoms: _208  and  _209
REMARK   89  A    between atoms: _212  and  _214
REMARK   90  A    between atoms: _214  and  _215
REMARK   91  A    between atoms: _214  and  _217
REMARK   92  A    between atoms: _217  and  _218
REMARK   93  A    between atoms: _223  and  _225
REMARK   94  A    between atoms: _225  and  _226
REMARK   95  A    between atoms: _225  and  _228
REMARK   96  A    between atoms: _228  and  _229
REMARK   97  A    between atoms: _232  and  _234
REMARK   98  A    between atoms: _234  and  _235
REMARK   99  A    between atoms: _234  and  _237
REMARK  100  A    between atoms: _237  and  _238
REMARK  101  A    between atoms: _241  and  _243
REMARK  102  A    between atoms: _243  and  _244
REMARK  103  A    between atoms: _246  and  _248
REMARK  104  A    between atoms: _248  and  _249
REMARK  105  A    between atoms: _248  and  _251
REMARK  106  A    between atoms: _251  and  _252
REMARK  107  A    between atoms: _252  and  _253
REMARK  108  A    between atoms: _253  and  _254
REMARK  109  A    between atoms: _263  and  _265
REMARK  110  A    between atoms: _265  and  _266
REMARK  111  A    between atoms: _265  and  _268
REMARK  112  A    between atoms: _268  and  _269
REMARK  113  A    between atoms: _274  and  _276
REMARK  114  A    between atoms: _276  and  _277
REMARK  115  A    between atoms: _276  and  _279
REMARK  116  A    between atoms: _279  and  _280
REMARK  117  A    between atoms: _280  and  _281
REMARK  118  A    between atoms: _281  and  _282
REMARK  119  A    between atoms: _291  and  _293
REMARK  120  A    between atoms: _293  and  _294
REMARK  121  A    between atoms: _293  and  _296
REMARK  122  A    between atoms: _296  and  _297
REMARK  123  A    between atoms: _300  and  _302
REMARK  124  A    between atoms: _302  and  _303
REMARK  125  A    between atoms: _302  and  _305
REMARK  126  A    between atoms: _305  and  _306
REMARK  127  A    between atoms: _309  and  _311
REMARK  128  A    between atoms: _311  and  _312
REMARK  129  A    between atoms: _311  and  _314
REMARK  130  A    between atoms: _314  and  _315
REMARK  131  A    between atoms: _318  and  _320
REMARK  132  A    between atoms: _320  and  _321
REMARK  133  A    between atoms: _320  and  _323
REMARK  134  A    between atoms: _323  and  _324
REMARK  135  A    between atoms: _327  and  _329
REMARK  136  A    between atoms: _329  and  _330
REMARK  137  A    between atoms: _332  and  _334
REMARK  138  A    between atoms: _334  and  _335
REMARK  139  A    between atoms: _338  and  _340
REMARK  140  A    between atoms: _340  and  _341
REMARK  141  A    between atoms: _340  and  _343
REMARK  142  A    between atoms: _343  and  _344
REMARK  143  A    between atoms: _347  and  _349
REMARK  144  A    between atoms: _349  and  _350
REMARK  145  A    between atoms: _349  and  _352
REMARK  146  A    between atoms: _352  and  _353
REMARK  147  A    between atoms: _356  and  _358
REMARK  148  A    between atoms: _358  and  _359
REMARK  149  A    between atoms: _358  and  _361
REMARK  150  A    between atoms: _361  and  _362
REMARK  151  A    between atoms: _365  and  _367
REMARK  152  A    between atoms: _367  and  _368
REMARK  153  A    between atoms: _367  and  _370
REMARK  154  A    between atoms: _373  and  _375
REMARK  155  A    between atoms: _375  and  _376
REMARK  156  A    between atoms: _375  and  _378
REMARK  157  A    between atoms: _378  and  _379
REMARK  158  A    between atoms: _382  and  _384
REMARK  159  A    between atoms: _384  and  _385
REMARK  160  A    between atoms: _387  and  _389
REMARK  161  A    between atoms: _389  and  _390
REMARK  162  A    between atoms: _392  and  _394
REMARK  163  A    between atoms: _394  and  _395
REMARK  164  A    between atoms: _394  and  _397
REMARK  165  A    between atoms: _397  and  _398
REMARK  166  A    between atoms: _401  and  _403
REMARK  167  A    between atoms: _403  and  _404
REMARK  168  A    between atoms: _406  and  _408
REMARK  169  A    between atoms: _408  and  _409
REMARK  170  A    between atoms: _411  and  _413
REMARK  171  A    between atoms: _413  and  _414
REMARK  172  A    between atoms: _413  and  _416
REMARK  173  A    between atoms: _416  and  _417
REMARK  174  A    between atoms: _420  and  _422
REMARK  175  A    between atoms: _422  and  _423
REMARK  176  A    between atoms: _422  and  _425
REMARK  177  A    between atoms: _425  and  _426
REMARK  178  A    between atoms: _430  and  _431
REMARK  179  A    between atoms: _436  and  _438
REMARK  180  A    between atoms: _438  and  _439
REMARK  181  A    between atoms: _442  and  _444
REMARK  182  A    between atoms: _444  and  _445
REMARK  183  A    between atoms: _444  and  _447
REMARK  184  A    between atoms: _447  and  _448
REMARK  185  A    between atoms: _453  and  _455
REMARK  186  A    between atoms: _455  and  _456
REMARK  187  A    between atoms: _455  and  _458
REMARK  188  A    between atoms: _458  and  _459
REMARK  189  A    between atoms: _462  and  _464
REMARK  190  A    between atoms: _464  and  _465
REMARK  191  A    between atoms: _464  and  _467
REMARK  192  A    between atoms: _467  and  _468
REMARK  193  A    between atoms: _471  and  _473
REMARK  194  A    between atoms: _473  and  _474
REMARK  195  A    between atoms: _476  and  _478
REMARK  196  A    between atoms: _478  and  _479
REMARK  197  A    between atoms: _478  and  _481
REMARK  198  A    between atoms: _481  and  _482
REMARK  199  A    between atoms: _482  and  _483
REMARK  200  A    between atoms: _483  and  _484
REMARK  201  A    between atoms: _493  and  _495
REMARK  202  A    between atoms: _495  and  _496
REMARK  203  A    between atoms: _495  and  _498
REMARK  204  A    between atoms: _498  and  _499
REMARK                            x       y       z     vdW  Elec       q    Type
REMARK                         _______ _______ _______ _____ _____    ______ ____
ROOT
ATOM      1  C   GLY A   5      21.598  35.545  11.237  0.00  0.00    +0.243 C 
ATOM      2  N   ILE A   6      22.133  34.343  11.042  0.00  0.00    -0.297 N 
ATOM      3  H   ILE A   6      21.912  33.564  11.694  0.00  0.00    +0.150 HD
ATOM      4  O   GLY A   5      21.880  36.501  10.507  0.00  0.00    -0.273 OA
ENDROOT
BRANCH   2   5
ATOM      5  CA  ILE A   6      23.025  34.118   9.919  0.00  0.00    +0.149 C 
BRANCH   5   6
ATOM      6  C   ILE A   6      22.214  34.404   8.655  0.00  0.00    +0.241 C 
ATOM      7  O   ILE A   6      21.085  33.903   8.507  0.00  0.00    -0.273 OA
ATOM      8  N   GLY A   7      22.810  35.208   7.800  0.00  0.00    -0.295 N 
ATOM      9  H   GLY A   7      23.761  35.571   8.013  0.00  0.00    +0.150 HD
BRANCH   8  10
ATOM     10  CA  GLY A   7      22.156  35.594   6.565  0.00  0.00    +0.176 C 
BRANCH  10  11
ATOM     11  C   GLY A   7      21.424  36.900   6.606  0.00  0.00    +0.243 C 
ATOM     12  N   GLY A   8      21.144  37.448   7.766  0.00  0.00    -0.295 N 
ATOM     13  H   GLY A   8      21.422  36.953   8.637  0.00  0.00    +0.150 HD
ATOM     14  O   GLY A   7      21.096  37.452   5.578  0.00  0.00    -0.273 OA
BRANCH  12  15
ATOM     15  CA  GLY A   8      20.460  38.720   7.869  0.00  0.00    +0.176 C 
BRANCH  15  16
ATOM     16  C   GLY A   8      19.171  38.628   8.644  0.00  0.00    +0.243 C 
ATOM     17  O   GLY A   8      18.988  37.741   9.488  0.00  0.00    -0.273 OA
ATOM     18  N   PHE A   9      18.258  39.541   8.381  0.00  0.00    -0.297 N 
ATOM     19  H   PHE A   9      18.430  40.180   7.579  0.00  0.00    +0.150 HD
BRANCH  18  20
ATOM     20  CA  PHE A   9      17.035  39.716   9.128  0.00  0.00    +0.153 C 
BRANCH  20  21
ATOM     21  C   PHE A   9      15.804  39.200   8.330  0.00  0.00    +0.241 C 
ATOM     22  N   ILE A  10      14.796  38.805   9.140  0.00  0.00    -0.298 N 
ATOM     23  H   ILE A  10      14.966  38.712  10.162  0.00  0.00    +0.150 HD
ATOM     24  O   PHE A   9      15.768  39.186   7.110  0.00  0.00    -0.273 OA
BRANCH  22  25
ATOM     25  CA  ILE A  10      13.476  38.508   8.603  0.00  0.00    +0.137 C 
BRANCH  25  26
ATOM     26  C   ILE A  10      12.443  39.338   9.363  0.00  0.00    +0.227 C 
ATOM     27  O   ILE A  10      12.650  39.700  10.516  0.00  0.00    -0.286 OA
ENDBRANCH  25  26
BRANCH  25  28
ATOM     28  CB  ILE A  10      13.112  37.009   8.668  0.00  0.00    +0.026 C 
ATOM     29  CG2 ILE A  10      14.067  36.236   7.768  0.00  0.00    +0.002 C 
BRANCH  28  30
ATOM     30  CG1 ILE A  10      13.052  36.463  10.082  0.00  0.00    +0.002 C 
ATOM     31  CD1 ILE A  10      12.395  35.103  10.197  0.00  0.00    +0.000 C 
ENDBRANCH  28  30
ENDBRANCH  25  28
ENDBRANCH  22  25
ENDBRANCH  20  21
BRANCH  20  32
ATOM     32  CB  PHE A   9      16.805  41.175   9.486  0.00  0.00    +0.055 C 
BRANCH  32  33
ATOM     33  CG  PHE A   9      17.732  41.643  10.582  0.00  0.00    -0.020 A 
ATOM     34  CD2 PHE A   9      17.251  41.831  11.843  0.00  0.00    -0.004 A 
ATOM     35  CE2 PHE A   9      18.055  42.256  12.894  0.00  0.00    -0.000 A 
ATOM     36  CZ  PHE A   9      19.405  42.489  12.665  0.00  0.00    -0.000 A 
ATOM     37  CE1 PHE A   9      19.871  42.309  11.387  0.00  0.00    -0.000 A 
ATOM     38  CD1 PHE A   9      19.076  41.883  10.332  0.00  0.00    -0.004 A 
ENDBRANCH  32  33
ENDBRANCH  20  32
ENDBRANCH  18  20
ENDBRANCH  15  16
ENDBRANCH  12  15
ENDBRANCH  10  11
ENDBRANCH   8  10
ENDBRANCH   5   6
BRANCH   5  39
ATOM     39  CB  ILE A   6      23.596  32.715   9.991  0.00  0.00    +0.027 C 
ATOM     40  CG2 ILE A   6      24.194  32.315   8.657  0.00  0.00    +0.002 C 
BRANCH  39  41
ATOM     41  CG1 ILE A   6      24.618  32.581  11.110  0.00  0.00    +0.002 C 
ATOM     42  CD1 ILE A   6      25.090  31.211  11.467  0.00  0.00    +0.000 C 
ENDBRANCH  39  41
ENDBRANCH   5  39
ENDBRANCH   2   5
BRANCH   1  43
ATOM     43  CA  GLY A   5      20.652  35.691  12.405  0.00  0.00    +0.176 C 
BRANCH  43  46
ATOM     44  C   GLY A   4      19.203  37.491  13.157  0.00  0.00    +0.243 C 
ATOM     45  O   GLY A   4      19.299  37.121  14.340  0.00  0.00    -0.273 OA
ATOM     46  N   GLY A   5      19.776  36.831  12.165  0.00  0.00    -0.295 N 
ATOM     47  H   GLY A   5      19.597  37.134  11.186  0.00  0.00    +0.150 HD
BRANCH  44  48
ATOM     48  CA  GLY A   4      18.444  38.721  12.756  0.00  0.00    +0.176 C 
BRANCH  48  50
ATOM     49  C   ILE A   3      16.061  39.027  13.032  0.00  0.00    +0.241 C 
ATOM     50  N   GLY A   4      17.255  38.945  13.540  0.00  0.00    -0.295 N 
ATOM     51  H   GLY A   4      17.358  39.047  14.570  0.00  0.00    +0.150 HD
ATOM     52  O   ILE A   3      15.798  38.777  11.848  0.00  0.00    -0.273 OA
BRANCH  49  53
ATOM     53  CA  ILE A   3      14.980  39.489  14.003  0.00  0.00    +0.149 C 
BRANCH  53  56
ATOM     54  C   MET A   2      13.588  41.475  13.616  0.00  0.00    +0.241 C 
ATOM     55  O   MET A   2      13.991  41.998  14.669  0.00  0.00    -0.273 OA
ATOM     56  N   ILE A   3      13.964  40.252  13.224  0.00  0.00    -0.297 N 
ATOM     57  H   ILE A   3      13.545  39.831  12.370  0.00  0.00    +0.150 HD
BRANCH  54  58
ATOM     58  CA  MET A   2      12.615  42.212  12.719  0.00  0.00    +0.149 C 
BRANCH  58  60
ATOM     59  C   LYS A   1      10.300  42.530  13.418  0.00  0.00    +0.238 C 
ATOM     60  N   MET A   2      11.593  42.807  13.566  0.00  0.00    -0.297 N 
ATOM     61  H   MET A   2      11.883  43.471  14.312  0.00  0.00    +0.150 HD
ATOM     62  O   LYS A   1       9.833  41.911  12.469  0.00  0.00    -0.274 OA
BRANCH  59  63
ATOM     63  CA  LYS A   1       9.359  43.015  14.524  0.00  0.00    +0.145 C 
BRANCH  63  64
ATOM     64  N   LYS A   1       8.028  43.200  13.993  0.00  0.00    -0.238 NA
ATOM     65  H   LYS A   1       7.725  42.566  13.227  0.00  0.00    +0.142 HD
ENDBRANCH  63  64
BRANCH  63  66
ATOM     66  CB  LYS A   1       9.331  42.024  15.699  0.00  0.00    +0.026 C 
BRANCH  66  67
ATOM     67  CG  LYS A   1      10.574  41.956  16.594  0.00  0.00    -0.000 C 
BRANCH  67  68
ATOM     68  CD  LYS A   1      10.412  41.054  17.774  0.00  0.00    -0.024 C 
BRANCH  68  69
ATOM     69  CE  LYS A   1      11.692  40.855  18.524  0.00  0.00    -0.086 C 
BRANCH  69  70
ATOM     70  NZ  LYS A   1      12.043  42.010  19.352  0.00  0.00    +0.380 N 
ATOM     71  HZ1 LYS A   1      11.288  42.179  20.047  0.00  0.00    -0.089 HD
ATOM     72  HZ2 LYS A   1      12.936  41.820  19.849  0.00  0.00    -0.089 HD
ATOM     73  HZ3 LYS A   1      12.153  42.848  18.747  0.00  0.00    -0.089 HD
ENDBRANCH  69  70
ENDBRANCH  68  69
ENDBRANCH  67  68
ENDBRANCH  66  67
ENDBRANCH  63  66
ENDBRANCH  59  63
ENDBRANCH  58  60
BRANCH  58  74
ATOM     74  CB  MET A   2      13.235  43.289  11.781  0.00  0.00    +0.041 C 
BRANCH  74  75
ATOM     75  CG  MET A   2      12.246  43.559  10.632  0.00  0.00    +0.060 C 
BRANCH  75  76
ATOM     76  SD  MET A   2      12.876  44.870   9.554  0.00  0.00    -0.139 S 
ATOM     77  CE  MET A   2      14.380  44.083   8.987  0.00  0.00    +0.069 C 
ENDBRANCH  75  76
ENDBRANCH  74  75
ENDBRANCH  58  74
ENDBRANCH  54  58
ENDBRANCH  53  56
BRANCH  53  78
ATOM     78  CB  ILE A   3      14.401  38.339  14.795  0.00  0.00    +0.027 C 
ATOM     79  CG2 ILE A   3      13.498  38.892  15.904  0.00  0.00    +0.002 C 
BRANCH  78  80
ATOM     80  CG1 ILE A   3      13.722  37.351  13.893  0.00  0.00    +0.002 C 
ATOM     81  CD1 ILE A   3      13.310  36.075  14.582  0.00  0.00    +0.000 C 
ENDBRANCH  78  80
ENDBRANCH  53  78
ENDBRANCH  49  53
ENDBRANCH  48  50
ENDBRANCH  44  48
ENDBRANCH  43  46
ENDBRANCH   1  43
TORSDOF 36
REMARK  Name = ../refined-set-2016/2qd7/2qd7_pocket.pdb
REMARK  204 active torsions:
REMARK  status: ('A' for Active; 'I' for Inactive)
REMARK    1  A    between atoms: _1  and  _3
REMARK    2  A    between atoms: _3  and  _4
REMARK    3  A    between atoms: _3  and  _6
REMARK    4  A    between atoms: _6  and  _7
REMARK    5  A    between atoms: _7  and  _8
REMARK    6  A    between atoms: _8  and  _9
REMARK    7  A    between atoms: _18  and  _20
REMARK    8  A    between atoms: _20  and  _21
REMARK    9  A    between atoms: _20  and  _23
REMARK   10  A    between atoms: _23  and  _24
REMARK   11  A    between atoms: _27  and  _29
REMARK   12  A    between atoms: _29  and  _30
REMARK   13  A    between atoms: _29  and  _32
REMARK   14  A    between atoms: _32  and  _33
REMARK   15  A    between atoms: _36  and  _38
REMARK   16  A    between atoms: _38  and  _39
REMARK   17  A    between atoms: _38  and  _41
REMARK   18  A    between atoms: _41  and  _42
REMARK   19  A    between atoms: _45  and  _47
REMARK   20  A    between atoms: _47  and  _48
REMARK   21  A    between atoms: _47  and  _50
REMARK   22  A    between atoms: _50  and  _51
REMARK   23  A    between atoms: _54  and  _56
REMARK   24  A    between atoms: _56  and  _57
REMARK   25  A    between atoms: _59  and  _61
REMARK   26  A    between atoms: _61  and  _62
REMARK   27  A    between atoms: _65  and  _67
REMARK   28  A    between atoms: _67  and  _68
REMARK   29  A    between atoms: _67  and  _70
REMARK   30  A    between atoms: _70  and  _71
REMARK   31  A    between atoms: _74  and  _76
REMARK   32  A    between atoms: _76  and  _77
REMARK   33  A    between atoms: _76  and  _79
REMARK   34  A    between atoms: _79  and  _80
REMARK   35  A    between atoms: _83  and  _85
REMARK   36  A    between atoms: _85  and  _86
REMARK   37  A    between atoms: _85  and  _88
REMARK   38  A    between atoms: _88  and  _89
REMARK   39  A    between atoms: _92  and  _94
REMARK   40  A    between atoms: _94  and  _95
REMARK   41  A    between atoms: _94  and  _97
REMARK   42  A    between atoms: _100  and  _102
REMARK   43  A    between atoms: _102  and  _103
REMARK   44  A    between atoms: _102  and  _105
REMARK   45  A    between atoms: _105  and  _106
REMARK   46  A    between atoms: _106  and  _107
REMARK   47  A    between atoms: _107  and  _108
REMARK   48  A    between atoms: _108  and  _109
REMARK   49  A    between atoms: _113  and  _115
REMARK   50  A    between atoms: _115  and  _116
REMARK   51  A    between atoms: _115  and  _118
REMARK   52  A    between atoms: _118  and  _119
REMARK   53  A    between atoms: _119  and  _120
REMARK   54  A    between atoms: _122  and  _124
REMARK   55  A    between atoms: _124  and  _125
REMARK   56  A    between atoms: _124  and  _127
REMARK   57  A    between atoms: _127  and  _128
REMARK   58  A    between atoms: _131  and  _133
REMARK   59  A    between atoms: _133  and  _134
REMARK   60  A    between atoms: _136  and  _138
REMARK   61  A    between atoms: _138  and  _139
REMARK   62  A    between atoms: _141  and  _143
REMARK   63  A    between atoms: _143  and  _144
REMARK   64  A    between atoms: _143  and  _146
REMARK   65  A    between atoms: _146  and  _147
REMARK   66  A    between atoms: _150  and  _152
REMARK   67  A    between atoms: _152  and  _153
REMARK   68  A    between atoms: _155  and  _157
REMARK   69  A    between atoms: _157  and  _158
REMARK   70  A    between atoms: _160  and  _162
REMARK   71  A    between atoms: _162  and  _163
REMARK   72  A    between atoms: _162  and  _165
REMARK   73  A    between atoms: _165  and  _166
REMARK   74  A    between atoms: _172  and  _174
REMARK   75  A    between atoms: _174  and  _175
REMARK   76  A    between atoms: _174  and  _177
REMARK   77  A    between atoms: _177  and  _178
REMARK   78  A    between atoms: _181  and  _183
REMARK   79  A    between atoms: _183  and  _184
REMARK   80  A    between atoms: _183  and  _186
REMARK   81  A    between atoms: _186  and  _187
REMARK   82  A    between atoms: _190  and  _192
REMARK   83  A    between atoms: _192  and  _193
REMARK   84  A    between atoms: _192  and  _195
REMARK   85  A    between atoms: _195  and  _196
REMARK   86  A    between atoms: _200  and  _201
REMARK   87  A    between atoms: _206  and  _208
REMARK   88  A    between atoms: _208  and  _209
REMARK   89  A    between atoms: _212  and  _214
REMARK   90  A    between atoms: _214  and  _215
REMARK   91  A    between atoms: _214  and  _217
REMARK   92  A    between atoms: _217  and  _218
REMARK   93  A    between atoms: _223  and  _225
REMARK   94  A    between atoms: _225  and  _226
REMARK   95  A    between atoms: _225  and  _228
REMARK   96  A    between atoms: _228  and  _229
REMARK   97  A    between atoms: _232  and  _234
REMARK   98  A    between atoms: _234  and  _235
REMARK   99  A    between atoms: _234  and  _237
REMARK  100  A    between atoms: _237  and  _238
REMARK  101  A    between atoms: _241  and  _243
REMARK  102  A    between atoms: _243  and  _244
REMARK  103  A    between atoms: _246  and  _248
REMARK  104  A    between atoms: _248  and  _249
REMARK  105  A    between atoms: _248  and  _251
REMARK  106  A    between atoms: _251  and  _252
REMARK  107  A    between atoms: _252  and  _253
REMARK  108  A    between atoms: _253  and  _254
REMARK  109  A    between atoms: _263  and  _265
REMARK  110  A    between atoms: _265  and  _266
REMARK  111  A    between atoms: _265  and  _268
REMARK  112  A    between atoms: _268  and  _269
REMARK  113  A    between atoms: _274  and  _276
REMARK  114  A    between atoms: _276  and  _277
REMARK  115  A    between atoms: _276  and  _279
REMARK  116  A    between atoms: _279  and  _280
REMARK  117  A    between atoms: _280  and  _281
REMARK  118  A    between atoms: _281  and  _282
REMARK  119  A    between atoms: _291  and  _293
REMARK  120  A    between atoms: _293  and  _294
REMARK  121  A    between atoms: _293  and  _296
REMARK  122  A    between atoms: _296  and  _297
REMARK  123  A    between atoms: _300  and  _302
REMARK  124  A    between atoms: _302  and  _303
REMARK  125  A    between atoms: _302  and  _305
REMARK  126  A    between atoms: _305  and  _306
REMARK  127  A    between atoms: _309  and  _311
REMARK  128  A    between atoms: _311  and  _312
REMARK  129  A    between atoms: _311  and  _314
REMARK  130  A    between atoms: _314  and  _315
REMARK  131  A    between atoms: _318  and  _320
REMARK  132  A    between atoms: _320  and  _321
REMARK  133  A    between atoms: _320  and  _323
REMARK  134  A    between atoms: _323  and  _324
REMARK  135  A    between atoms: _327  and  _329
REMARK  136  A    between atoms: _329  and  _330
REMARK  137  A    between atoms: _332  and  _334
REMARK  138  A    between atoms: _334  and  _335
REMARK  139  A    between atoms: _338  and  _340
REMARK  140  A    between atoms: _340  and  _341
REMARK  141  A    between atoms: _340  and  _343
REMARK  142  A    between atoms: _343  and  _344
REMARK  143  A    between atoms: _347  and  _349
REMARK  144  A    between atoms: _349  and  _350
REMARK  145  A    between atoms: _349  and  _352
REMARK  146  A    between atoms: _352  and  _353
REMARK  147  A    between atoms: _356  and  _358
REMARK  148  A    between atoms: _358  and  _359
REMARK  149  A    between atoms: _358  and  _361
REMARK  150  A    between atoms: _361  and  _362
REMARK  151  A    between atoms: _365  and  _367
REMARK  152  A    between atoms: _367  and  _368
REMARK  153  A    between atoms: _367  and  _370
REMARK  154  A    between atoms: _373  and  _375
REMARK  155  A    between atoms: _375  and  _376
REMARK  156  A    between atoms: _375  and  _378
REMARK  157  A    between atoms: _378  and  _379
REMARK  158  A    between atoms: _382  and  _384
REMARK  159  A    between atoms: _384  and  _385
REMARK  160  A    between atoms: _387  and  _389
REMARK  161  A    between atoms: _389  and  _390
REMARK  162  A    between atoms: _392  and  _394
REMARK  163  A    between atoms: _394  and  _395
REMARK  164  A    between atoms: _394  and  _397
REMARK  165  A    between atoms: _397  and  _398
REMARK  166  A    between atoms: _401  and  _403
REMARK  167  A    between atoms: _403  and  _404
REMARK  168  A    between atoms: _406  and  _408
REMARK  169  A    between atoms: _408  and  _409
REMARK  170  A    between atoms: _411  and  _413
REMARK  171  A    between atoms: _413  and  _414
REMARK  172  A    between atoms: _413  and  _416
REMARK  173  A    between atoms: _416  and  _417
REMARK  174  A    between atoms: _420  and  _422
REMARK  175  A    between atoms: _422  and  _423
REMARK  176  A    between atoms: _422  and  _425
REMARK  177  A    between atoms: _425  and  _426
REMARK  178  A    between atoms: _430  and  _431
REMARK  179  A    between atoms: _436  and  _438
REMARK  180  A    between atoms: _438  and  _439
REMARK  181  A    between atoms: _442  and  _444
REMARK  182  A    between atoms: _444  and  _445
REMARK  183  A    between atoms: _444  and  _447
REMARK  184  A    between atoms: _447  and  _448
REMARK  185  A    between atoms: _453  and  _455
REMARK  186  A    between atoms: _455  and  _456
REMARK  187  A    between atoms: _455  and  _458
REMARK  188  A    between atoms: _458  and  _459
REMARK  189  A    between atoms: _462  and  _464
REMARK  190  A    between atoms: _464  and  _465
REMARK  191  A    between atoms: _464  and  _467
REMARK  192  A    between atoms: _467  and  _468
REMARK  193  A    between atoms: _471  and  _473
REMARK  194  A    between atoms: _473  and  _474
REMARK  195  A    between atoms: _476  and  _478
REMARK  196  A    between atoms: _478  and  _479
REMARK  197  A    between atoms: _478  and  _481
REMARK  198  A    between atoms: _481  and  _482
REMARK  199  A    between atoms: _482  and  _483
REMARK  200  A    between atoms: _483  and  _484
REMARK  201  A    between atoms: _493  and  _495
REMARK  202  A    between atoms: _495  and  _496
REMARK  203  A    between atoms: _495  and  _498
REMARK  204  A    between atoms: _498  and  _499
REMARK                            x       y       z     vdW  Elec       q    Type
REMARK                         _______ _______ _______ _____ _____    ______ ____
ROOT
ATOM      1  CA  LEU A   1       7.117  35.542  16.640  0.00  0.00    +0.133 C 
ENDROOT
BRANCH   1   2
ATOM      2  N   LEU A   1       6.890  34.813  17.868  0.00  0.00    -0.239 NA
ATOM      3  H   LEU A   1       7.599  34.105  18.148  0.00  0.00    +0.142 HD
ENDBRANCH   1   2
BRANCH   1   4
ATOM      4  C   LEU A   1       6.765  34.643  15.480  0.00  0.00    +0.224 C 
ATOM      5  O   LEU A   1       7.229  33.504  15.451  0.00  0.00    -0.287 OA
ENDBRANCH   1   4
BRANCH   1   6
ATOM      6  CB  LEU A   1       8.572  35.965  16.565  0.00  0.00    +0.025 C 
BRANCH   6   7
ATOM      7  CG  LEU A   1       9.146  36.679  17.784  0.00  0.00    +0.002 C 
ATOM      8  CD2 LEU A   1       8.342  37.923  18.137  0.00  0.00    +0.000 C 
ATOM      9  CD1 LEU A   1      10.596  37.037  17.546  0.00  0.00    +0.000 C 
ENDBRANCH   6   7
ENDBRANCH   1   6
TORSDOF 4
REMARK  Name = ../refined-set-2016/2qd7/2qd7_pocket.pdb
REMARK  204 active torsions:
REMARK  status: ('A' for Active; 'I' for Inactive)
REMARK    1  A    between atoms: _1  and  _3
REMARK    2  A    between atoms: _3  and  _4
REMARK    3  A    between atoms: _3  and  _6
REMARK    4  A    between atoms: _6  and  _7
REMARK    5  A    between atoms: _7  and  _8
REMARK    6  A    between atoms: _8  and  _9
REMARK    7  A    between atoms: _18  and  _20
REMARK    8  A    between atoms: _20  and  _21
REMARK    9  A    between atoms: _20  and  _23
REMARK   10  A    between atoms: _23  and  _24
REMARK   11  A    between atoms: _27  and  _29
REMARK   12  A    between atoms: _29  and  _30
REMARK   13  A    between atoms: _29  and  _32
REMARK   14  A    between atoms: _32  and  _33
REMARK   15  A    between atoms: _36  and  _38
REMARK   16  A    between atoms: _38  and  _39
REMARK   17  A    between atoms: _38  and  _41
REMARK   18  A    between atoms: _41  and  _42
REMARK   19  A    between atoms: _45  and  _47
REMARK   20  A    between atoms: _47  and  _48
REMARK   21  A    between atoms: _47  and  _50
REMARK   22  A    between atoms: _50  and  _51
REMARK   23  A    between atoms: _54  and  _56
REMARK   24  A    between atoms: _56  and  _57
REMARK   25  A    between atoms: _59  and  _61
REMARK   26  A    between atoms: _61  and  _62
REMARK   27  A    between atoms: _65  and  _67
REMARK   28  A    between atoms: _67  and  _68
REMARK   29  A    between atoms: _67  and  _70
REMARK   30  A    between atoms: _70  and  _71
REMARK   31  A    between atoms: _74  and  _76
REMARK   32  A    between atoms: _76  and  _77
REMARK   33  A    between atoms: _76  and  _79
REMARK   34  A    between atoms: _79  and  _80
REMARK   35  A    between atoms: _83  and  _85
REMARK   36  A    between atoms: _85  and  _86
REMARK   37  A    between atoms: _85  and  _88
REMARK   38  A    between atoms: _88  and  _89
REMARK   39  A    between atoms: _92  and  _94
REMARK   40  A    between atoms: _94  and  _95
REMARK   41  A    between atoms: _94  and  _97
REMARK   42  A    between atoms: _100  and  _102
REMARK   43  A    between atoms: _102  and  _103
REMARK   44  A    between atoms: _102  and  _105
REMARK   45  A    between atoms: _105  and  _106
REMARK   46  A    between atoms: _106  and  _107
REMARK   47  A    between atoms: _107  and  _108
REMARK   48  A    between atoms: _108  and  _109
REMARK   49  A    between atoms: _113  and  _115
REMARK   50  A    between atoms: _115  and  _116
REMARK   51  A    between atoms: _115  and  _118
REMARK   52  A    between atoms: _118  and  _119
REMARK   53  A    between atoms: _119  and  _120
REMARK   54  A    between atoms: _122  and  _124
REMARK   55  A    between atoms: _124  and  _125
REMARK   56  A    between atoms: _124  and  _127
REMARK   57  A    between atoms: _127  and  _128
REMARK   58  A    between atoms: _131  and  _133
REMARK   59  A    between atoms: _133  and  _134
REMARK   60  A    between atoms: _136  and  _138
REMARK   61  A    between atoms: _138  and  _139
REMARK   62  A    between atoms: _141  and  _143
REMARK   63  A    between atoms: _143  and  _144
REMARK   64  A    between atoms: _143  and  _146
REMARK   65  A    between atoms: _146  and  _147
REMARK   66  A    between atoms: _150  and  _152
REMARK   67  A    between atoms: _152  and  _153
REMARK   68  A    between atoms: _155  and  _157
REMARK   69  A    between atoms: _157  and  _158
REMARK   70  A    between atoms: _160  and  _162
REMARK   71  A    between atoms: _162  and  _163
REMARK   72  A    between atoms: _162  and  _165
REMARK   73  A    between atoms: _165  and  _166
REMARK   74  A    between atoms: _172  and  _174
REMARK   75  A    between atoms: _174  and  _175
REMARK   76  A    between atoms: _174  and  _177
REMARK   77  A    between atoms: _177  and  _178
REMARK   78  A    between atoms: _181  and  _183
REMARK   79  A    between atoms: _183  and  _184
REMARK   80  A    between atoms: _183  and  _186
REMARK   81  A    between atoms: _186  and  _187
REMARK   82  A    between atoms: _190  and  _192
REMARK   83  A    between atoms: _192  and  _193
REMARK   84  A    between atoms: _192  and  _195
REMARK   85  A    between atoms: _195  and  _196
REMARK   86  A    between atoms: _200  and  _201
REMARK   87  A    between atoms: _206  and  _208
REMARK   88  A    between atoms: _208  and  _209
REMARK   89  A    between atoms: _212  and  _214
REMARK   90  A    between atoms: _214  and  _215
REMARK   91  A    between atoms: _214  and  _217
REMARK   92  A    between atoms: _217  and  _218
REMARK   93  A    between atoms: _223  and  _225
REMARK   94  A    between atoms: _225  and  _226
REMARK   95  A    between atoms: _225  and  _228
REMARK   96  A    between atoms: _228  and  _229
REMARK   97  A    between atoms: _232  and  _234
REMARK   98  A    between atoms: _234  and  _235
REMARK   99  A    between atoms: _234  and  _237
REMARK  100  A    between atoms: _237  and  _238
REMARK  101  A    between atoms: _241  and  _243
REMARK  102  A    between atoms: _243  and  _244
REMARK  103  A    between atoms: _246  and  _248
REMARK  104  A    between atoms: _248  and  _249
REMARK  105  A    between atoms: _248  and  _251
REMARK  106  A    between atoms: _251  and  _252
REMARK  107  A    between atoms: _252  and  _253
REMARK  108  A    between atoms: _253  and  _254
REMARK  109  A    between atoms: _263  and  _265
REMARK  110  A    between atoms: _265  and  _266
REMARK  111  A    between atoms: _265  and  _268
REMARK  112  A    between atoms: _268  and  _269
REMARK  113  A    between atoms: _274  and  _276
REMARK  114  A    between atoms: _276  and  _277
REMARK  115  A    between atoms: _276  and  _279
REMARK  116  A    between atoms: _279  and  _280
REMARK  117  A    between atoms: _280  and  _281
REMARK  118  A    between atoms: _281  and  _282
REMARK  119  A    between atoms: _291  and  _293
REMARK  120  A    between atoms: _293  and  _294
REMARK  121  A    between atoms: _293  and  _296
REMARK  122  A    between atoms: _296  and  _297
REMARK  123  A    between atoms: _300  and  _302
REMARK  124  A    between atoms: _302  and  _303
REMARK  125  A    between atoms: _302  and  _305
REMARK  126  A    between atoms: _305  and  _306
REMARK  127  A    between atoms: _309  and  _311
REMARK  128  A    between atoms: _311  and  _312
REMARK  129  A    between atoms: _311  and  _314
REMARK  130  A    between atoms: _314  and  _315
REMARK  131  A    between atoms: _318  and  _320
REMARK  132  A    between atoms: _320  and  _321
REMARK  133  A    between atoms: _320  and  _323
REMARK  134  A    between atoms: _323  and  _324
REMARK  135  A    between atoms: _327  and  _329
REMARK  136  A    between atoms: _329  and  _330
REMARK  137  A    between atoms: _332  and  _334
REMARK  138  A    between atoms: _334  and  _335
REMARK  139  A    between atoms: _338  and  _340
REMARK  140  A    between atoms: _340  and  _341
REMARK  141  A    between atoms: _340  and  _343
REMARK  142  A    between atoms: _343  and  _344
REMARK  143  A    between atoms: _347  and  _349
REMARK  144  A    between atoms: _349  and  _350
REMARK  145  A    between atoms: _349  and  _352
REMARK  146  A    between atoms: _352  and  _353
REMARK  147  A    between atoms: _356  and  _358
REMARK  148  A    between atoms: _358  and  _359
REMARK  149  A    between atoms: _358  and  _361
REMARK  150  A    between atoms: _361  and  _362
REMARK  151  A    between atoms: _365  and  _367
REMARK  152  A    between atoms: _367  and  _368
REMARK  153  A    between atoms: _367  and  _370
REMARK  154  A    between atoms: _373  and  _375
REMARK  155  A    between atoms: _375  and  _376
REMARK  156  A    between atoms: _375  and  _378
REMARK  157  A    between atoms: _378  and  _379
REMARK  158  A    between atoms: _382  and  _384
REMARK  159  A    between atoms: _384  and  _385
REMARK  160  A    between atoms: _387  and  _389
REMARK  161  A    between atoms: _389  and  _390
REMARK  162  A    between atoms: _392  and  _394
REMARK  163  A    between atoms: _394  and  _395
REMARK  164  A    between atoms: _394  and  _397
REMARK  165  A    between atoms: _397  and  _398
REMARK  166  A    between atoms: _401  and  _403
REMARK  167  A    between atoms: _403  and  _404
REMARK  168  A    between atoms: _406  and  _408
REMARK  169  A    between atoms: _408  and  _409
REMARK  170  A    between atoms: _411  and  _413
REMARK  171  A    between atoms: _413  and  _414
REMARK  172  A    between atoms: _413  and  _416
REMARK  173  A    between atoms: _416  and  _417
REMARK  174  A    between atoms: _420  and  _422
REMARK  175  A    between atoms: _422  and  _423
REMARK  176  A    between atoms: _422  and  _425
REMARK  177  A    between atoms: _425  and  _426
REMARK  178  A    between atoms: _430  and  _431
REMARK  179  A    between atoms: _436  and  _438
REMARK  180  A    between atoms: _438  and  _439
REMARK  181  A    between atoms: _442  and  _444
REMARK  182  A    between atoms: _444  and  _445
REMARK  183  A    between atoms: _444  and  _447
REMARK  184  A    between atoms: _447  and  _448
REMARK  185  A    between atoms: _453  and  _455
REMARK  186  A    between atoms: _455  and  _456
REMARK  187  A    between atoms: _455  and  _458
REMARK  188  A    between atoms: _458  and  _459
REMARK  189  A    between atoms: _462  and  _464
REMARK  190  A    between atoms: _464  and  _465
REMARK  191  A    between atoms: _464  and  _467
REMARK  192  A    between atoms: _467  and  _468
REMARK  193  A    between atoms: _471  and  _473
REMARK  194  A    between atoms: _473  and  _474
REMARK  195  A    between atoms: _476  and  _478
REMARK  196  A    between atoms: _478  and  _479
REMARK  197  A    between atoms: _478  and  _481
REMARK  198  A    between atoms: _481  and  _482
REMARK  199  A    between atoms: _482  and  _483
REMARK  200  A    between atoms: _483  and  _484
REMARK  201  A    between atoms: _493  and  _495
REMARK  202  A    between atoms: _495  and  _496
REMARK  203  A    between atoms: _495  and  _498
REMARK  204  A    between atoms: _498  and  _499
REMARK                            x       y       z     vdW  Elec       q    Type
REMARK                         _______ _______ _______ _____ _____    ______ ____
ROOT
ATOM      1  C   ILE A   5      11.795  27.918  18.468  0.00  0.00    +0.241 C 
ATOM      2  N   ILE A   6      11.990  27.095  19.477  0.00  0.00    -0.297 N 
ATOM      3  H   ILE A   6      12.455  26.183  19.292  0.00  0.00    +0.150 HD
ATOM      4  O   ILE A   5      11.124  28.971  18.552  0.00  0.00    -0.273 OA
ENDROOT
BRANCH   2   5
ATOM      5  CA  ILE A   6      11.584  27.404  20.839  0.00  0.00    +0.149 C 
BRANCH   5   6
ATOM      6  C   ILE A   6      12.767  28.055  21.530  0.00  0.00    +0.241 C 
ATOM      7  N   GLY A   7      12.645  29.313  21.873  0.00  0.00    -0.295 N 
ATOM      8  H   GLY A   7      11.730  29.783  21.719  0.00  0.00    +0.150 HD
ATOM      9  O   ILE A   6      13.793  27.374  21.729  0.00  0.00    -0.273 OA
BRANCH   7  10
ATOM     10  CA  GLY A   7      13.701  30.062  22.444  0.00  0.00    +0.176 C 
BRANCH  10  11
ATOM     11  C   GLY A   7      13.622  30.146  23.956  0.00  0.00    +0.243 C 
ATOM     12  O   GLY A   7      12.735  29.567  24.612  0.00  0.00    -0.273 OA
ATOM     13  N   ARG A   8      14.572  30.869  24.552  0.00  0.00    -0.297 N 
ATOM     14  H   ARG A   8      15.198  31.464  23.972  0.00  0.00    +0.150 HD
BRANCH  13  15
ATOM     15  CA  ARG A   8      14.748  30.843  25.980  0.00  0.00    +0.149 C 
BRANCH  15  16
ATOM     16  C   ARG A   8      13.551  31.420  26.731  0.00  0.00    +0.241 C 
ATOM     17  O   ARG A   8      13.342  31.055  27.895  0.00  0.00    -0.273 OA
ATOM     18  N   ASN A   9      12.788  32.316  26.083  0.00  0.00    -0.298 N 
ATOM     19  H   ASN A   9      13.024  32.626  25.119  0.00  0.00    +0.150 HD
BRANCH  18  20
ATOM     20  CA  ASN A   9      11.613  32.842  26.781  0.00  0.00    +0.146 C 
BRANCH  20  21
ATOM     21  C   ASN A   9      10.642  31.724  27.191  0.00  0.00    +0.227 C 
ATOM     22  O   ASN A   9       9.976  31.867  28.201  0.00  0.00    -0.286 OA
ENDBRANCH  20  21
BRANCH  20  23
ATOM     23  CB  ASN A   9      10.913  33.897  25.915  0.00  0.00    +0.112 C 
BRANCH  23  24
ATOM     24  CG  ASN A   9      10.219  33.334  24.718  0.00  0.00    +0.222 C 
ATOM     25  ND2 ASN A   9       8.931  33.671  24.560  0.00  0.00    -0.329 N 
ATOM     26 HD21 ASN A   9       8.467  34.292  25.254  0.00  0.00    +0.145 HD
ATOM     27 HD22 ASN A   9       8.396  33.312  23.744  0.00  0.00    +0.145 HD
ATOM     28  OD1 ASN A   9      10.839  32.585  23.912  0.00  0.00    -0.275 OA
ENDBRANCH  23  24
ENDBRANCH  20  23
ENDBRANCH  18  20
ENDBRANCH  15  16
BRANCH  15  29
ATOM     29  CB  ARG A   8      16.028  31.618  26.373  0.00  0.00    +0.033 C 
BRANCH  29  30
ATOM     30  CG  ARG A   8      17.297  30.929  25.910  0.00  0.00    +0.045 C 
BRANCH  30  31
ATOM     31  CD  ARG A   8      18.594  31.593  26.413  0.00  0.00    +0.174 C 
BRANCH  31  32
ATOM     32  NE  ARG A   8      18.665  32.958  25.992  0.00  0.00    -0.265 N 
ATOM     33  CZ  ARG A   8      18.317  34.037  26.677  0.00  0.00    +0.342 C 
ATOM     34  NH2 ARG A   8      17.870  33.978  27.934  0.00  0.00    -0.292 N 
ATOM     35 HH21 ARG A   8      17.608  34.851  28.434  0.00  0.00    +0.255 HD
ATOM     36 HH22 ARG A   8      17.784  33.059  28.413  0.00  0.00    +0.255 HD
ATOM     37  NH1 ARG A   8      18.419  35.245  26.128  0.00  0.00    -0.292 N 
ATOM     38 HH11 ARG A   8      18.144  36.088  26.671  0.00  0.00    +0.255 HD
ATOM     39 HH12 ARG A   8      18.774  35.346  25.156  0.00  0.00    +0.255 HD
ATOM     40  HE  ARG A   8      19.034  33.123  25.034  0.00  0.00    +0.259 HD
ENDBRANCH  31  32
ENDBRANCH  30  31
ENDBRANCH  29  30
ENDBRANCH  15  29
ENDBRANCH  13  15
ENDBRANCH  10  11
ENDBRANCH   7  10
ENDBRANCH   5   6
BRANCH   5  41
ATOM     41  CB  ILE A   6      11.102  26.143  21.603  0.00  0.00    +0.027 C 
ATOM     42  CG2 ILE A   6      10.666  26.544  22.998  0.00  0.00    +0.002 C 
BRANCH  41  43
ATOM     43  CG1 ILE A   6      10.027  25.385  20.832  0.00  0.00    +0.002 C 
ATOM     44  CD1 ILE A   6       8.796  26.236  20.489  0.00  0.00    +0.000 C 
ENDBRANCH  41  43
ENDBRANCH   5  41
ENDBRANCH   2   5
BRANCH   1  45
ATOM     45  CA  ILE A   5      12.403  27.567  17.146  0.00  0.00    +0.149 C 
BRANCH  45  47
ATOM     46  C   ASN A   4      11.240  26.280  15.389  0.00  0.00    +0.241 C 
ATOM     47  N   ILE A   5      11.359  27.355  16.122  0.00  0.00    -0.297 N 
ATOM     48  H   ILE A   5      10.668  28.118  15.974  0.00  0.00    +0.150 HD
ATOM     49  O   ASN A   4      11.872  25.229  15.566  0.00  0.00    -0.273 OA
BRANCH  46  50
ATOM     50  CA  ASN A   4      10.224  26.354  14.249  0.00  0.00    +0.158 C 
BRANCH  50  52
ATOM     51  C   ALA A   3      11.685  26.886  12.385  0.00  0.00    +0.241 C 
ATOM     52  N   ASN A   4      10.908  26.014  13.008  0.00  0.00    -0.297 N 
ATOM     53  H   ASN A   4      10.783  25.065  12.603  0.00  0.00    +0.150 HD
ATOM     54  O   ALA A   3      11.718  28.065  12.682  0.00  0.00    -0.273 OA
BRANCH  51  55
ATOM     55  CA  ALA A   3      12.569  26.341  11.295  0.00  0.00    +0.149 C 
ATOM     56  CB  ALA A   3      13.948  26.028  11.905  0.00  0.00    +0.031 C 
BRANCH  55  58
ATOM     57  C   PRO A   2      12.801  26.908   8.916  0.00  0.00    +0.241 C 
ATOM     58  N   ALA A   3      12.670  27.270  10.176  0.00  0.00    -0.297 N 
ATOM     59  H   ALA A   3      12.636  28.288  10.387  0.00  0.00    +0.150 HD
ATOM     60  O   PRO A   2      12.839  25.714   8.559  0.00  0.00    -0.273 OA
BRANCH  57  67
ATOM     61  C   THR A   1      11.527  29.821   8.677  0.00  0.00    +0.244 C 
ATOM     62  O   THR A   1      10.531  29.152   8.425  0.00  0.00    -0.273 OA
ATOM     63  N   PRO A   2      12.748  29.342   8.402  0.00  0.00    -0.272 N 
ATOM     64  CD  PRO A   2      14.032  30.024   8.529  0.00  0.00    +0.094 C 
ATOM     65  CG  PRO A   2      15.025  28.974   8.146  0.00  0.00    +0.024 C 
ATOM     66  CB  PRO A   2      14.342  28.009   7.322  0.00  0.00    +0.031 C 
ATOM     67  CA  PRO A   2      12.916  27.984   7.871  0.00  0.00    +0.152 C 
BRANCH  61  68
ATOM     68  CA  THR A   1      11.432  31.204   9.308  0.00  0.00    +0.172 C 
BRANCH  68  69
ATOM     69  CB  THR A   1      11.350  31.088  10.842  0.00  0.00    +0.135 C 
ATOM     70  CG2 THR A   1      10.039  30.455  11.315  0.00  0.00    +0.034 C 
BRANCH  69  71
ATOM     71  OG1 THR A   1      12.463  30.292  11.245  0.00  0.00    -0.383 OA
ATOM     72  HG1 THR A   1      12.454  30.188  12.230  0.00  0.00    +0.210 HD
ENDBRANCH  69  71
ENDBRANCH  68  69
BRANCH  68  73
ATOM     73  N   THR A   1      10.289  31.926   8.770  0.00  0.00    -0.236 NA
ATOM     74  H   THR A   1       9.422  31.990   9.340  0.00  0.00    +0.142 HD
ENDBRANCH  68  73
ENDBRANCH  61  68
ENDBRANCH  57  67
ENDBRANCH  55  58
ENDBRANCH  51  55
ENDBRANCH  50  52
BRANCH  50  75
ATOM     75  CB  ASN A   4       9.080  25.418  14.538  0.00  0.00    +0.114 C 
BRANCH  75  76
ATOM     76  CG  ASN A   4       7.942  25.521  13.533  0.00  0.00    +0.222 C 
ATOM     77  ND2 ASN A   4       7.435  24.359  13.161  0.00  0.00    -0.329 N 
ATOM     78 HD21 ASN A   4       7.834  23.474  13.535  0.00  0.00    +0.145 HD
ATOM     79 HD22 ASN A   4       6.637  24.329  12.494  0.00  0.00    +0.145 HD
ATOM     80  OD1 ASN A   4       7.522  26.591  13.133  0.00  0.00    -0.275 OA
ENDBRANCH  75  76
ENDBRANCH  50  75
ENDBRANCH  46  50
ENDBRANCH  45  47
BRANCH  45  81
ATOM     81  CB  ILE A   5      13.326  28.688  16.642  0.00  0.00    +0.027 C 
ATOM     82  CG2 ILE A   5      14.276  29.146  17.740  0.00  0.00    +0.002 C 
BRANCH  81  83
ATOM     83  CG1 ILE A   5      14.079  28.289  15.366  0.00  0.00    +0.002 C 
ATOM     84  CD1 ILE A   5      14.611  29.481  14.582  0.00  0.00    +0.000 C 
ENDBRANCH  81  83
ENDBRANCH  45  81
ENDBRANCH   1  45
TORSDOF 31
REMARK  Name = ../refined-set-2016/2qd7/2qd7_pocket.pdb
REMARK  204 active torsions:
REMARK  status: ('A' for Active; 'I' for Inactive)
REMARK    1  A    between atoms: _1  and  _3
REMARK    2  A    between atoms: _3  and  _4
REMARK    3  A    between atoms: _3  and  _6
REMARK    4  A    between atoms: _6  and  _7
REMARK    5  A    between atoms: _7  and  _8
REMARK    6  A    between atoms: _8  and  _9
REMARK    7  A    between atoms: _18  and  _20
REMARK    8  A    between atoms: _20  and  _21
REMARK    9  A    between atoms: _20  and  _23
REMARK   10  A    between atoms: _23  and  _24
REMARK   11  A    between atoms: _27  and  _29
REMARK   12  A    between atoms: _29  and  _30
REMARK   13  A    between atoms: _29  and  _32
REMARK   14  A    between atoms: _32  and  _33
REMARK   15  A    between atoms: _36  and  _38
REMARK   16  A    between atoms: _38  and  _39
REMARK   17  A    between atoms: _38  and  _41
REMARK   18  A    between atoms: _41  and  _42
REMARK   19  A    between atoms: _45  and  _47
REMARK   20  A    between atoms: _47  and  _48
REMARK   21  A    between atoms: _47  and  _50
REMARK   22  A    between atoms: _50  and  _51
REMARK   23  A    between atoms: _54  and  _56
REMARK   24  A    between atoms: _56  and  _57
REMARK   25  A    between atoms: _59  and  _61
REMARK   26  A    between atoms: _61  and  _62
REMARK   27  A    between atoms: _65  and  _67
REMARK   28  A    between atoms: _67  and  _68
REMARK   29  A    between atoms: _67  and  _70
REMARK   30  A    between atoms: _70  and  _71
REMARK   31  A    between atoms: _74  and  _76
REMARK   32  A    between atoms: _76  and  _77
REMARK   33  A    between atoms: _76  and  _79
REMARK   34  A    between atoms: _79  and  _80
REMARK   35  A    between atoms: _83  and  _85
REMARK   36  A    between atoms: _85  and  _86
REMARK   37  A    between atoms: _85  and  _88
REMARK   38  A    between atoms: _88  and  _89
REMARK   39  A    between atoms: _92  and  _94
REMARK   40  A    between atoms: _94  and  _95
REMARK   41  A    between atoms: _94  and  _97
REMARK   42  A    between atoms: _100  and  _102
REMARK   43  A    between atoms: _102  and  _103
REMARK   44  A    between atoms: _102  and  _105
REMARK   45  A    between atoms: _105  and  _106
REMARK   46  A    between atoms: _106  and  _107
REMARK   47  A    between atoms: _107  and  _108
REMARK   48  A    between atoms: _108  and  _109
REMARK   49  A    between atoms: _113  and  _115
REMARK   50  A    between atoms: _115  and  _116
REMARK   51  A    between atoms: _115  and  _118
REMARK   52  A    between atoms: _118  and  _119
REMARK   53  A    between atoms: _119  and  _120
REMARK   54  A    between atoms: _122  and  _124
REMARK   55  A    between atoms: _124  and  _125
REMARK   56  A    between atoms: _124  and  _127
REMARK   57  A    between atoms: _127  and  _128
REMARK   58  A    between atoms: _131  and  _133
REMARK   59  A    between atoms: _133  and  _134
REMARK   60  A    between atoms: _136  and  _138
REMARK   61  A    between atoms: _138  and  _139
REMARK   62  A    between atoms: _141  and  _143
REMARK   63  A    between atoms: _143  and  _144
REMARK   64  A    between atoms: _143  and  _146
REMARK   65  A    between atoms: _146  and  _147
REMARK   66  A    between atoms: _150  and  _152
REMARK   67  A    between atoms: _152  and  _153
REMARK   68  A    between atoms: _155  and  _157
REMARK   69  A    between atoms: _157  and  _158
REMARK   70  A    between atoms: _160  and  _162
REMARK   71  A    between atoms: _162  and  _163
REMARK   72  A    between atoms: _162  and  _165
REMARK   73  A    between atoms: _165  and  _166
REMARK   74  A    between atoms: _172  and  _174
REMARK   75  A    between atoms: _174  and  _175
REMARK   76  A    between atoms: _174  and  _177
REMARK   77  A    between atoms: _177  and  _178
REMARK   78  A    between atoms: _181  and  _183
REMARK   79  A    between atoms: _183  and  _184
REMARK   80  A    between atoms: _183  and  _186
REMARK   81  A    between atoms: _186  and  _187
REMARK   82  A    between atoms: _190  and  _192
REMARK   83  A    between atoms: _192  and  _193
REMARK   84  A    between atoms: _192  and  _195
REMARK   85  A    between atoms: _195  and  _196
REMARK   86  A    between atoms: _200  and  _201
REMARK   87  A    between atoms: _206  and  _208
REMARK   88  A    between atoms: _208  and  _209
REMARK   89  A    between atoms: _212  and  _214
REMARK   90  A    between atoms: _214  and  _215
REMARK   91  A    between atoms: _214  and  _217
REMARK   92  A    between atoms: _217  and  _218
REMARK   93  A    between atoms: _223  and  _225
REMARK   94  A    between atoms: _225  and  _226
REMARK   95  A    between atoms: _225  and  _228
REMARK   96  A    between atoms: _228  and  _229
REMARK   97  A    between atoms: _232  and  _234
REMARK   98  A    between atoms: _234  and  _235
REMARK   99  A    between atoms: _234  and  _237
REMARK  100  A    between atoms: _237  and  _238
REMARK  101  A    between atoms: _241  and  _243
REMARK  102  A    between atoms: _243  and  _244
REMARK  103  A    between atoms: _246  and  _248
REMARK  104  A    between atoms: _248  and  _249
REMARK  105  A    between atoms: _248  and  _251
REMARK  106  A    between atoms: _251  and  _252
REMARK  107  A    between atoms: _252  and  _253
REMARK  108  A    between atoms: _253  and  _254
REMARK  109  A    between atoms: _263  and  _265
REMARK  110  A    between atoms: _265  and  _266
REMARK  111  A    between atoms: _265  and  _268
REMARK  112  A    between atoms: _268  and  _269
REMARK  113  A    between atoms: _274  and  _276
REMARK  114  A    between atoms: _276  and  _277
REMARK  115  A    between atoms: _276  and  _279
REMARK  116  A    between atoms: _279  and  _280
REMARK  117  A    between atoms: _280  and  _281
REMARK  118  A    between atoms: _281  and  _282
REMARK  119  A    between atoms: _291  and  _293
REMARK  120  A    between atoms: _293  and  _294
REMARK  121  A    between atoms: _293  and  _296
REMARK  122  A    between atoms: _296  and  _297
REMARK  123  A    between atoms: _300  and  _302
REMARK  124  A    between atoms: _302  and  _303
REMARK  125  A    between atoms: _302  and  _305
REMARK  126  A    between atoms: _305  and  _306
REMARK  127  A    between atoms: _309  and  _311
REMARK  128  A    between atoms: _311  and  _312
REMARK  129  A    between atoms: _311  and  _314
REMARK  130  A    between atoms: _314  and  _315
REMARK  131  A    between atoms: _318  and  _320
REMARK  132  A    between atoms: _320  and  _321
REMARK  133  A    between atoms: _320  and  _323
REMARK  134  A    between atoms: _323  and  _324
REMARK  135  A    between atoms: _327  and  _329
REMARK  136  A    between atoms: _329  and  _330
REMARK  137  A    between atoms: _332  and  _334
REMARK  138  A    between atoms: _334  and  _335
REMARK  139  A    between atoms: _338  and  _340
REMARK  140  A    between atoms: _340  and  _341
REMARK  141  A    between atoms: _340  and  _343
REMARK  142  A    between atoms: _343  and  _344
REMARK  143  A    between atoms: _347  and  _349
REMARK  144  A    between atoms: _349  and  _350
REMARK  145  A    between atoms: _349  and  _352
REMARK  146  A    between atoms: _352  and  _353
REMARK  147  A    between atoms: _356  and  _358
REMARK  148  A    between atoms: _358  and  _359
REMARK  149  A    between atoms: _358  and  _361
REMARK  150  A    between atoms: _361  and  _362
REMARK  151  A    between atoms: _365  and  _367
REMARK  152  A    between atoms: _367  and  _368
REMARK  153  A    between atoms: _367  and  _370
REMARK  154  A    between atoms: _373  and  _375
REMARK  155  A    between atoms: _375  and  _376
REMARK  156  A    between atoms: _375  and  _378
REMARK  157  A    between atoms: _378  and  _379
REMARK  158  A    between atoms: _382  and  _384
REMARK  159  A    between atoms: _384  and  _385
REMARK  160  A    between atoms: _387  and  _389
REMARK  161  A    between atoms: _389  and  _390
REMARK  162  A    between atoms: _392  and  _394
REMARK  163  A    between atoms: _394  and  _395
REMARK  164  A    between atoms: _394  and  _397
REMARK  165  A    between atoms: _397  and  _398
REMARK  166  A    between atoms: _401  and  _403
REMARK  167  A    between atoms: _403  and  _404
REMARK  168  A    between atoms: _406  and  _408
REMARK  169  A    between atoms: _408  and  _409
REMARK  170  A    between atoms: _411  and  _413
REMARK  171  A    between atoms: _413  and  _414
REMARK  172  A    between atoms: _413  and  _416
REMARK  173  A    between atoms: _416  and  _417
REMARK  174  A    between atoms: _420  and  _422
REMARK  175  A    between atoms: _422  and  _423
REMARK  176  A    between atoms: _422  and  _425
REMARK  177  A    between atoms: _425  and  _426
REMARK  178  A    between atoms: _430  and  _431
REMARK  179  A    between atoms: _436  and  _438
REMARK  180  A    between atoms: _438  and  _439
REMARK  181  A    between atoms: _442  and  _444
REMARK  182  A    between atoms: _444  and  _445
REMARK  183  A    between atoms: _444  and  _447
REMARK  184  A    between atoms: _447  and  _448
REMARK  185  A    between atoms: _453  and  _455
REMARK  186  A    between atoms: _455  and  _456
REMARK  187  A    between atoms: _455  and  _458
REMARK  188  A    between atoms: _458  and  _459
REMARK  189  A    between atoms: _462  and  _464
REMARK  190  A    between atoms: _464  and  _465
REMARK  191  A    between atoms: _464  and  _467
REMARK  192  A    between atoms: _467  and  _468
REMARK  193  A    between atoms: _471  and  _473
REMARK  194  A    between atoms: _473  and  _474
REMARK  195  A    between atoms: _476  and  _478
REMARK  196  A    between atoms: _478  and  _479
REMARK  197  A    between atoms: _478  and  _481
REMARK  198  A    between atoms: _481  and  _482
REMARK  199  A    between atoms: _482  and  _483
REMARK  200  A    between atoms: _483  and  _484
REMARK  201  A    between atoms: _493  and  _495
REMARK  202  A    between atoms: _495  and  _496
REMARK  203  A    between atoms: _495  and  _498
REMARK  204  A    between atoms: _498  and  _499
REMARK                            x       y       z     vdW  Elec       q    Type
REMARK                         _______ _______ _______ _____ _____    ______ ____
ROOT
ATOM      1  NE  ARG A   1      21.507  37.261  23.805  0.00  0.00    -0.265 N 
ATOM      2  HE  ARG A   1      20.555  36.846  23.746  0.00  0.00    +0.259 HD
ATOM      3  CZ  ARG A   1      21.726  38.359  23.118  0.00  0.00    +0.342 C 
ATOM      4  NH2 ARG A   1      22.924  38.908  23.177  0.00  0.00    -0.292 N 
ATOM      5 HH21 ARG A   1      23.668  38.471  23.758  0.00  0.00    +0.255 HD
ATOM      6 HH22 ARG A   1      23.124  39.778  22.643  0.00  0.00    +0.255 HD
ATOM      7  NH1 ARG A   1      20.742  38.871  22.402  0.00  0.00    -0.292 N 
ATOM      8 HH11 ARG A   1      19.812  38.406  22.388  0.00  0.00    +0.255 HD
ATOM      9 HH12 ARG A   1      20.897  39.740  21.852  0.00  0.00    +0.255 HD
ENDROOT
BRANCH   1  10
ATOM     10  CD  ARG A   1      22.476  36.577  24.639  0.00  0.00    +0.174 C 
BRANCH  10  11
ATOM     11  CG  ARG A   1      21.832  35.514  25.499  0.00  0.00    +0.045 C 
BRANCH  11  12
ATOM     12  CB  ARG A   1      22.850  34.689  26.260  0.00  0.00    +0.029 C 
BRANCH  12  13
ATOM     13  CA  ARG A   1      22.200  33.706  27.238  0.00  0.00    +0.133 C 
BRANCH  13  14
ATOM     14  N   ARG A   1      21.547  34.401  28.325  0.00  0.00    -0.239 NA
ATOM     15  H   ARG A   1      21.544  35.441  28.348  0.00  0.00    +0.142 HD
ENDBRANCH  13  14
BRANCH  13  16
ATOM     16  C   ARG A   1      23.278  32.763  27.748  0.00  0.00    +0.224 C 
ATOM     17  O   ARG A   1      24.069  33.182  28.606  0.00  0.00    -0.287 OA
ENDBRANCH  13  16
ENDBRANCH  12  13
ENDBRANCH  11  12
ENDBRANCH  10  11
ENDBRANCH   1  10
TORSDOF 6
REMARK  Name = ../refined-set-2016/2qd7/2qd7_pocket.pdb
REMARK  204 active torsions:
REMARK  status: ('A' for Active; 'I' for Inactive)
REMARK    1  A    between atoms: _1  and  _3
REMARK    2  A    between atoms: _3  and  _4
REMARK    3  A    between atoms: _3  and  _6
REMARK    4  A    between atoms: _6  and  _7
REMARK    5  A    between atoms: _7  and  _8
REMARK    6  A    between atoms: _8  and  _9
REMARK    7  A    between atoms: _18  and  _20
REMARK    8  A    between atoms: _20  and  _21
REMARK    9  A    between atoms: _20  and  _23
REMARK   10  A    between atoms: _23  and  _24
REMARK   11  A    between atoms: _27  and  _29
REMARK   12  A    between atoms: _29  and  _30
REMARK   13  A    between atoms: _29  and  _32
REMARK   14  A    between atoms: _32  and  _33
REMARK   15  A    between atoms: _36  and  _38
REMARK   16  A    between atoms: _38  and  _39
REMARK   17  A    between atoms: _38  and  _41
REMARK   18  A    between atoms: _41  and  _42
REMARK   19  A    between atoms: _45  and  _47
REMARK   20  A    between atoms: _47  and  _48
REMARK   21  A    between atoms: _47  and  _50
REMARK   22  A    between atoms: _50  and  _51
REMARK   23  A    between atoms: _54  and  _56
REMARK   24  A    between atoms: _56  and  _57
REMARK   25  A    between atoms: _59  and  _61
REMARK   26  A    between atoms: _61  and  _62
REMARK   27  A    between atoms: _65  and  _67
REMARK   28  A    between atoms: _67  and  _68
REMARK   29  A    between atoms: _67  and  _70
REMARK   30  A    between atoms: _70  and  _71
REMARK   31  A    between atoms: _74  and  _76
REMARK   32  A    between atoms: _76  and  _77
REMARK   33  A    between atoms: _76  and  _79
REMARK   34  A    between atoms: _79  and  _80
REMARK   35  A    between atoms: _83  and  _85
REMARK   36  A    between atoms: _85  and  _86
REMARK   37  A    between atoms: _85  and  _88
REMARK   38  A    between atoms: _88  and  _89
REMARK   39  A    between atoms: _92  and  _94
REMARK   40  A    between atoms: _94  and  _95
REMARK   41  A    between atoms: _94  and  _97
REMARK   42  A    between atoms: _100  and  _102
REMARK   43  A    between atoms: _102  and  _103
REMARK   44  A    between atoms: _102  and  _105
REMARK   45  A    between atoms: _105  and  _106
REMARK   46  A    between atoms: _106  and  _107
REMARK   47  A    between atoms: _107  and  _108
REMARK   48  A    between atoms: _108  and  _109
REMARK   49  A    between atoms: _113  and  _115
REMARK   50  A    between atoms: _115  and  _116
REMARK   51  A    between atoms: _115  and  _118
REMARK   52  A    between atoms: _118  and  _119
REMARK   53  A    between atoms: _119  and  _120
REMARK   54  A    between atoms: _122  and  _124
REMARK   55  A    between atoms: _124  and  _125
REMARK   56  A    between atoms: _124  and  _127
REMARK   57  A    between atoms: _127  and  _128
REMARK   58  A    between atoms: _131  and  _133
REMARK   59  A    between atoms: _133  and  _134
REMARK   60  A    between atoms: _136  and  _138
REMARK   61  A    between atoms: _138  and  _139
REMARK   62  A    between atoms: _141  and  _143
REMARK   63  A    between atoms: _143  and  _144
REMARK   64  A    between atoms: _143  and  _146
REMARK   65  A    between atoms: _146  and  _147
REMARK   66  A    between atoms: _150  and  _152
REMARK   67  A    between atoms: _152  and  _153
REMARK   68  A    between atoms: _155  and  _157
REMARK   69  A    between atoms: _157  and  _158
REMARK   70  A    between atoms: _160  and  _162
REMARK   71  A    between atoms: _162  and  _163
REMARK   72  A    between atoms: _162  and  _165
REMARK   73  A    between atoms: _165  and  _166
REMARK   74  A    between atoms: _172  and  _174
REMARK   75  A    between atoms: _174  and  _175
REMARK   76  A    between atoms: _174  and  _177
REMARK   77  A    between atoms: _177  and  _178
REMARK   78  A    between atoms: _181  and  _183
REMARK   79  A    between atoms: _183  and  _184
REMARK   80  A    between atoms: _183  and  _186
REMARK   81  A    between atoms: _186  and  _187
REMARK   82  A    between atoms: _190  and  _192
REMARK   83  A    between atoms: _192  and  _193
REMARK   84  A    between atoms: _192  and  _195
REMARK   85  A    between atoms: _195  and  _196
REMARK   86  A    between atoms: _200  and  _201
REMARK   87  A    between atoms: _206  and  _208
REMARK   88  A    between atoms: _208  and  _209
REMARK   89  A    between atoms: _212  and  _214
REMARK   90  A    between atoms: _214  and  _215
REMARK   91  A    between atoms: _214  and  _217
REMARK   92  A    between atoms: _217  and  _218
REMARK   93  A    between atoms: _223  and  _225
REMARK   94  A    between atoms: _225  and  _226
REMARK   95  A    between atoms: _225  and  _228
REMARK   96  A    between atoms: _228  and  _229
REMARK   97  A    between atoms: _232  and  _234
REMARK   98  A    between atoms: _234  and  _235
REMARK   99  A    between atoms: _234  and  _237
REMARK  100  A    between atoms: _237  and  _238
REMARK  101  A    between atoms: _241  and  _243
REMARK  102  A    between atoms: _243  and  _244
REMARK  103  A    between atoms: _246  and  _248
REMARK  104  A    between atoms: _248  and  _249
REMARK  105  A    between atoms: _248  and  _251
REMARK  106  A    between atoms: _251  and  _252
REMARK  107  A    between atoms: _252  and  _253
REMARK  108  A    between atoms: _253  and  _254
REMARK  109  A    between atoms: _263  and  _265
REMARK  110  A    between atoms: _265  and  _266
REMARK  111  A    between atoms: _265  and  _268
REMARK  112  A    between atoms: _268  and  _269
REMARK  113  A    between atoms: _274  and  _276
REMARK  114  A    between atoms: _276  and  _277
REMARK  115  A    between atoms: _276  and  _279
REMARK  116  A    between atoms: _279  and  _280
REMARK  117  A    between atoms: _280  and  _281
REMARK  118  A    between atoms: _281  and  _282
REMARK  119  A    between atoms: _291  and  _293
REMARK  120  A    between atoms: _293  and  _294
REMARK  121  A    between atoms: _293  and  _296
REMARK  122  A    between atoms: _296  and  _297
REMARK  123  A    between atoms: _300  and  _302
REMARK  124  A    between atoms: _302  and  _303
REMARK  125  A    between atoms: _302  and  _305
REMARK  126  A    between atoms: _305  and  _306
REMARK  127  A    between atoms: _309  and  _311
REMARK  128  A    between atoms: _311  and  _312
REMARK  129  A    between atoms: _311  and  _314
REMARK  130  A    between atoms: _314  and  _315
REMARK  131  A    between atoms: _318  and  _320
REMARK  132  A    between atoms: _320  and  _321
REMARK  133  A    between atoms: _320  and  _323
REMARK  134  A    between atoms: _323  and  _324
REMARK  135  A    between atoms: _327  and  _329
REMARK  136  A    between atoms: _329  and  _330
REMARK  137  A    between atoms: _332  and  _334
REMARK  138  A    between atoms: _334  and  _335
REMARK  139  A    between atoms: _338  and  _340
REMARK  140  A    between atoms: _340  and  _341
REMARK  141  A    between atoms: _340  and  _343
REMARK  142  A    between atoms: _343  and  _344
REMARK  143  A    between atoms: _347  and  _349
REMARK  144  A    between atoms: _349  and  _350
REMARK  145  A    between atoms: _349  and  _352
REMARK  146  A    between atoms: _352  and  _353
REMARK  147  A    between atoms: _356  and  _358
REMARK  148  A    between atoms: _358  and  _359
REMARK  149  A    between atoms: _358  and  _361
REMARK  150  A    between atoms: _361  and  _362
REMARK  151  A    between atoms: _365  and  _367
REMARK  152  A    between atoms: _367  and  _368
REMARK  153  A    between atoms: _367  and  _370
REMARK  154  A    between atoms: _373  and  _375
REMARK  155  A    between atoms: _375  and  _376
REMARK  156  A    between atoms: _375  and  _378
REMARK  157  A    between atoms: _378  and  _379
REMARK  158  A    between atoms: _382  and  _384
REMARK  159  A    between atoms: _384  and  _385
REMARK  160  A    between atoms: _387  and  _389
REMARK  161  A    between atoms: _389  and  _390
REMARK  162  A    between atoms: _392  and  _394
REMARK  163  A    between atoms: _394  and  _395
REMARK  164  A    between atoms: _394  and  _397
REMARK  165  A    between atoms: _397  and  _398
REMARK  166  A    between atoms: _401  and  _403
REMARK  167  A    between atoms: _403  and  _404
REMARK  168  A    between atoms: _406  and  _408
REMARK  169  A    between atoms: _408  and  _409
REMARK  170  A    between atoms: _411  and  _413
REMARK  171  A    between atoms: _413  and  _414
REMARK  172  A    between atoms: _413  and  _416
REMARK  173  A    between atoms: _416  and  _417
REMARK  174  A    between atoms: _420  and  _422
REMARK  175  A    between atoms: _422  and  _423
REMARK  176  A    between atoms: _422  and  _425
REMARK  177  A    between atoms: _425  and  _426
REMARK  178  A    between atoms: _430  and  _431
REMARK  179  A    between atoms: _436  and  _438
REMARK  180  A    between atoms: _438  and  _439
REMARK  181  A    between atoms: _442  and  _444
REMARK  182  A    between atoms: _444  and  _445
REMARK  183  A    between atoms: _444  and  _447
REMARK  184  A    between atoms: _447  and  _448
REMARK  185  A    between atoms: _453  and  _455
REMARK  186  A    between atoms: _455  and  _456
REMARK  187  A    between atoms: _455  and  _458
REMARK  188  A    between atoms: _458  and  _459
REMARK  189  A    between atoms: _462  and  _464
REMARK  190  A    between atoms: _464  and  _465
REMARK  191  A    between atoms: _464  and  _467
REMARK  192  A    between atoms: _467  and  _468
REMARK  193  A    between atoms: _471  and  _473
REMARK  194  A    between atoms: _473  and  _474
REMARK  195  A    between atoms: _476  and  _478
REMARK  196  A    between atoms: _478  and  _479
REMARK  197  A    between atoms: _478  and  _481
REMARK  198  A    between atoms: _481  and  _482
REMARK  199  A    between atoms: _482  and  _483
REMARK  200  A    between atoms: _483  and  _484
REMARK  201  A    between atoms: _493  and  _495
REMARK  202  A    between atoms: _495  and  _496
REMARK  203  A    between atoms: _495  and  _498
REMARK  204  A    between atoms: _498  and  _499
REMARK                            x       y       z     vdW  Elec       q    Type
REMARK                         _______ _______ _______ _____ _____    ______ ____
ROOT
ATOM      1  C   GLY A   5      20.499  25.109  16.210  0.00  0.00    +0.243 C 
ATOM      2  N   ALA A   6      21.813  25.053  16.444  0.00  0.00    -0.297 N 
ATOM      3  H   ALA A   6      22.138  24.994  17.430  0.00  0.00    +0.150 HD
ATOM      4  O   GLY A   5      20.034  25.230  15.060  0.00  0.00    -0.273 OA
ENDROOT
BRANCH   2   5
ATOM      5  CA  ALA A   6      22.806  25.071  15.393  0.00  0.00    +0.149 C 
ATOM      6  CB  ALA A   6      23.943  26.031  15.736  0.00  0.00    +0.031 C 
BRANCH   5   7
ATOM      7  C   ALA A   6      23.380  23.683  15.176  0.00  0.00    +0.241 C 
ATOM      8  O   ALA A   6      23.903  23.070  16.117  0.00  0.00    -0.273 OA
ATOM      9  N   ASP A   7      23.323  23.188  13.945  0.00  0.00    -0.297 N 
ATOM     10  H   ASP A   7      22.793  23.703  13.214  0.00  0.00    +0.150 HD
BRANCH   9  11
ATOM     11  CA  ASP A   7      23.983  21.946  13.599  0.00  0.00    +0.160 C 
BRANCH  11  12
ATOM     12  C   ASP A   7      25.496  22.098  13.695  0.00  0.00    +0.241 C 
ATOM     13  O   ASP A   7      26.191  21.165  14.102  0.00  0.00    -0.273 OA
ATOM     14  N   ASP A   8      25.984  23.263  13.269  0.00  0.00    -0.297 N 
ATOM     15  H   ASP A   8      25.295  24.017  13.072  0.00  0.00    +0.150 HD
BRANCH  14  16
ATOM     16  CA  ASP A   8      27.372  23.580  13.055  0.00  0.00    +0.160 C 
BRANCH  16  17
ATOM     17  C   ASP A   8      27.833  24.746  13.914  0.00  0.00    +0.241 C 
ATOM     18  O   ASP A   8      27.068  25.564  14.365  0.00  0.00    -0.273 OA
ATOM     19  N   THR A   9      29.132  24.810  14.135  0.00  0.00    -0.295 N 
ATOM     20  H   THR A   9      29.718  24.046  13.741  0.00  0.00    +0.150 HD
BRANCH  19  21
ATOM     21  CA  THR A   9      29.818  25.852  14.880  0.00  0.00    +0.176 C 
BRANCH  21  22
ATOM     22  C   THR A   9      30.295  26.929  13.930  0.00  0.00    +0.243 C 
ATOM     23  N   VAL A  10      29.949  28.166  14.222  0.00  0.00    -0.298 N 
ATOM     24  H   VAL A  10      29.443  28.336  15.114  0.00  0.00    +0.150 HD
ATOM     25  O   THR A   9      30.975  26.618  12.949  0.00  0.00    -0.273 OA
BRANCH  23  26
ATOM     26  CA  VAL A  10      30.236  29.310  13.365  0.00  0.00    +0.137 C 
BRANCH  26  27
ATOM     27  CB  VAL A  10      28.974  29.819  12.629  0.00  0.00    +0.026 C 
ATOM     28  CG2 VAL A  10      28.190  28.661  12.029  0.00  0.00    +0.002 C 
ATOM     29  CG1 VAL A  10      29.390  30.779  11.556  0.00  0.00    +0.002 C 
ENDBRANCH  26  27
BRANCH  26  30
ATOM     30  C   VAL A  10      30.853  30.402  14.227  0.00  0.00    +0.227 C 
ATOM     31  O   VAL A  10      30.242  30.838  15.224  0.00  0.00    -0.286 OA
ENDBRANCH  26  30
ENDBRANCH  23  26
ENDBRANCH  21  22
BRANCH  21  32
ATOM     32  CB  THR A   9      30.985  25.210  15.649  0.00  0.00    +0.137 C 
ATOM     33  CG2 THR A   9      31.866  26.234  16.331  0.00  0.00    +0.034 C 
BRANCH  32  34
ATOM     34  OG1 THR A   9      30.402  24.318  16.633  0.00  0.00    -0.382 OA
ATOM     35  HG1 THR A   9      29.863  23.627  16.172  0.00  0.00    +0.210 HD
ENDBRANCH  32  34
ENDBRANCH  21  32
ENDBRANCH  19  21
ENDBRANCH  16  17
BRANCH  16  36
ATOM     36  CB  ASP A   8      27.581  23.966  11.571  0.00  0.00    +0.143 C 
BRANCH  36  37
ATOM     37  CG  ASP A   8      26.988  22.844  10.697  0.00  0.00    +0.367 C 
ATOM     38  OD2 ASP A   8      27.321  21.665  10.852  0.00  0.00    -0.246 OA
ATOM     39  OD1 ASP A   8      26.136  23.067   9.830  0.00  0.00    -0.246 OA
ENDBRANCH  36  37
ENDBRANCH  16  36
ENDBRANCH  14  16
ENDBRANCH  11  12
BRANCH  11  40
ATOM     40  CB  ASP A   7      23.651  21.530  12.171  0.00  0.00    +0.143 C 
BRANCH  40  41
ATOM     41  CG  ASP A   7      22.203  21.237  11.839  0.00  0.00    +0.367 C 
ATOM     42  OD2 ASP A   7      21.356  21.103  12.734  0.00  0.00    -0.246 OA
ATOM     43  OD1 ASP A   7      21.923  21.180  10.630  0.00  0.00    -0.246 OA
ENDBRANCH  40  41
ENDBRANCH  11  40
ENDBRANCH   9  11
ENDBRANCH   5   7
ENDBRANCH   2   5
BRANCH   1  44
ATOM     44  CA  GLY A   5      19.569  24.995  17.392  0.00  0.00    +0.176 C 
BRANCH  44  46
ATOM     45  C   THR A   4      20.660  23.705  19.144  0.00  0.00    +0.243 C 
ATOM     46  N   GLY A   5      20.227  24.873  18.687  0.00  0.00    -0.295 N 
ATOM     47  H   GLY A   5      20.361  25.725  19.269  0.00  0.00    +0.150 HD
ATOM     48  O   THR A   4      20.465  22.628  18.559  0.00  0.00    -0.273 OA
BRANCH  45  49
ATOM     49  CA  THR A   4      21.442  23.686  20.452  0.00  0.00    +0.176 C 
BRANCH  49  51
ATOM     50  C   ASP A   3      22.938  25.558  20.096  0.00  0.00    +0.241 C 
ATOM     51  N   THR A   4      21.961  24.997  20.822  0.00  0.00    -0.295 N 
ATOM     52  H   THR A   4      21.574  25.496  21.648  0.00  0.00    +0.150 HD
ATOM     53  O   ASP A   3      23.390  25.023  19.090  0.00  0.00    -0.273 OA
BRANCH  50  54
ATOM     54  CA  ASP A   3      23.480  26.904  20.580  0.00  0.00    +0.160 C 
BRANCH  54  57
ATOM     55  C   LEU A   2      24.687  27.348  22.661  0.00  0.00    +0.241 C 
ATOM     56  O   LEU A   2      23.698  27.854  23.206  0.00  0.00    -0.273 OA
ATOM     57  N   ASP A   3      24.625  26.733  21.471  0.00  0.00    -0.297 N 
ATOM     58  H   ASP A   3      25.411  26.120  21.175  0.00  0.00    +0.150 HD
BRANCH  55  59
ATOM     59  CA  LEU A   2      26.056  27.411  23.328  0.00  0.00    +0.149 C 
BRANCH  59  61
ATOM     60  C   LEU A   1      26.793  29.567  22.434  0.00  0.00    +0.238 C 
ATOM     61  N   LEU A   2      26.419  28.828  23.475  0.00  0.00    -0.297 N 
ATOM     62  H   LEU A   2      26.382  29.264  24.418  0.00  0.00    +0.150 HD
ATOM     63  O   LEU A   1      26.937  29.082  21.311  0.00  0.00    -0.274 OA
BRANCH  60  64
ATOM     64  CA  LEU A   1      27.001  31.053  22.651  0.00  0.00    +0.145 C 
BRANCH  64  65
ATOM     65  N   LEU A   1      28.324  31.452  22.237  0.00  0.00    -0.238 NA
ATOM     66  H   LEU A   1      28.480  31.613  21.221  0.00  0.00    +0.142 HD
ENDBRANCH  64  65
BRANCH  64  67
ATOM     67  CB  LEU A   1      26.016  31.879  21.808  0.00  0.00    +0.026 C 
BRANCH  67  68
ATOM     68  CG  LEU A   1      24.544  31.708  22.097  0.00  0.00    +0.002 C 
ATOM     69  CD2 LEU A   1      24.172  32.269  23.469  0.00  0.00    +0.000 C 
ATOM     70  CD1 LEU A   1      23.725  32.418  21.030  0.00  0.00    +0.000 C 
ENDBRANCH  67  68
ENDBRANCH  64  67
ENDBRANCH  60  64
ENDBRANCH  59  61
BRANCH  59  71
ATOM     71  CB  LEU A   2      26.068  26.711  24.670  0.00  0.00    +0.029 C 
BRANCH  71  72
ATOM     72  CG  LEU A   2      27.374  26.804  25.468  0.00  0.00    +0.002 C 
ATOM     73  CD2 LEU A   2      27.183  26.083  26.814  0.00  0.00    +0.000 C 
ATOM     74  CD1 LEU A   2      28.547  26.245  24.691  0.00  0.00    +0.000 C 
ENDBRANCH  71  72
ENDBRANCH  59  71
ENDBRANCH  55  59
ENDBRANCH  54  57
BRANCH  54  75
ATOM     75  CB  ASP A   3      23.942  27.797  19.432  0.00  0.00    +0.143 C 
BRANCH  75  76
ATOM     76  CG  ASP A   3      22.883  28.270  18.524  0.00  0.00    +0.367 C 
ATOM     77  OD2 ASP A   3      21.730  27.716  18.696  0.00  0.00    -0.246 OA
ATOM     78  OD1 ASP A   3      23.091  29.112  17.650  0.00  0.00    -0.246 OA
ENDBRANCH  75  76
ENDBRANCH  54  75
ENDBRANCH  50  54
ENDBRANCH  49  51
BRANCH  49  79
ATOM     79  CB  THR A   4      20.589  23.100  21.572  0.00  0.00    +0.137 C 
ATOM     80  CG2 THR A   4      21.370  22.854  22.859  0.00  0.00    +0.034 C 
BRANCH  79  81
ATOM     81  OG1 THR A   4      19.535  24.023  21.885  0.00  0.00    -0.382 OA
ATOM     82  HG1 THR A   4      18.977  24.170  21.081  0.00  0.00    +0.210 HD
ENDBRANCH  79  81
ENDBRANCH  49  79
ENDBRANCH  45  49
ENDBRANCH  44  46
ENDBRANCH   1  44
TORSDOF 35
REMARK  Name = ../refined-set-2016/2qd7/2qd7_pocket.pdb
REMARK  204 active torsions:
REMARK  status: ('A' for Active; 'I' for Inactive)
REMARK    1  A    between atoms: _1  and  _3
REMARK    2  A    between atoms: _3  and  _4
REMARK    3  A    between atoms: _3  and  _6
REMARK    4  A    between atoms: _6  and  _7
REMARK    5  A    between atoms: _7  and  _8
REMARK    6  A    between atoms: _8  and  _9
REMARK    7  A    between atoms: _18  and  _20
REMARK    8  A    between atoms: _20  and  _21
REMARK    9  A    between atoms: _20  and  _23
REMARK   10  A    between atoms: _23  and  _24
REMARK   11  A    between atoms: _27  and  _29
REMARK   12  A    between atoms: _29  and  _30
REMARK   13  A    between atoms: _29  and  _32
REMARK   14  A    between atoms: _32  and  _33
REMARK   15  A    between atoms: _36  and  _38
REMARK   16  A    between atoms: _38  and  _39
REMARK   17  A    between atoms: _38  and  _41
REMARK   18  A    between atoms: _41  and  _42
REMARK   19  A    between atoms: _45  and  _47
REMARK   20  A    between atoms: _47  and  _48
REMARK   21  A    between atoms: _47  and  _50
REMARK   22  A    between atoms: _50  and  _51
REMARK   23  A    between atoms: _54  and  _56
REMARK   24  A    between atoms: _56  and  _57
REMARK   25  A    between atoms: _59  and  _61
REMARK   26  A    between atoms: _61  and  _62
REMARK   27  A    between atoms: _65  and  _67
REMARK   28  A    between atoms: _67  and  _68
REMARK   29  A    between atoms: _67  and  _70
REMARK   30  A    between atoms: _70  and  _71
REMARK   31  A    between atoms: _74  and  _76
REMARK   32  A    between atoms: _76  and  _77
REMARK   33  A    between atoms: _76  and  _79
REMARK   34  A    between atoms: _79  and  _80
REMARK   35  A    between atoms: _83  and  _85
REMARK   36  A    between atoms: _85  and  _86
REMARK   37  A    between atoms: _85  and  _88
REMARK   38  A    between atoms: _88  and  _89
REMARK   39  A    between atoms: _92  and  _94
REMARK   40  A    between atoms: _94  and  _95
REMARK   41  A    between atoms: _94  and  _97
REMARK   42  A    between atoms: _100  and  _102
REMARK   43  A    between atoms: _102  and  _103
REMARK   44  A    between atoms: _102  and  _105
REMARK   45  A    between atoms: _105  and  _106
REMARK   46  A    between atoms: _106  and  _107
REMARK   47  A    between atoms: _107  and  _108
REMARK   48  A    between atoms: _108  and  _109
REMARK   49  A    between atoms: _113  and  _115
REMARK   50  A    between atoms: _115  and  _116
REMARK   51  A    between atoms: _115  and  _118
REMARK   52  A    between atoms: _118  and  _119
REMARK   53  A    between atoms: _119  and  _120
REMARK   54  A    between atoms: _122  and  _124
REMARK   55  A    between atoms: _124  and  _125
REMARK   56  A    between atoms: _124  and  _127
REMARK   57  A    between atoms: _127  and  _128
REMARK   58  A    between atoms: _131  and  _133
REMARK   59  A    between atoms: _133  and  _134
REMARK   60  A    between atoms: _136  and  _138
REMARK   61  A    between atoms: _138  and  _139
REMARK   62  A    between atoms: _141  and  _143
REMARK   63  A    between atoms: _143  and  _144
REMARK   64  A    between atoms: _143  and  _146
REMARK   65  A    between atoms: _146  and  _147
REMARK   66  A    between atoms: _150  and  _152
REMARK   67  A    between atoms: _152  and  _153
REMARK   68  A    between atoms: _155  and  _157
REMARK   69  A    between atoms: _157  and  _158
REMARK   70  A    between atoms: _160  and  _162
REMARK   71  A    between atoms: _162  and  _163
REMARK   72  A    between atoms: _162  and  _165
REMARK   73  A    between atoms: _165  and  _166
REMARK   74  A    between atoms: _172  and  _174
REMARK   75  A    between atoms: _174  and  _175
REMARK   76  A    between atoms: _174  and  _177
REMARK   77  A    between atoms: _177  and  _178
REMARK   78  A    between atoms: _181  and  _183
REMARK   79  A    between atoms: _183  and  _184
REMARK   80  A    between atoms: _183  and  _186
REMARK   81  A    between atoms: _186  and  _187
REMARK   82  A    between atoms: _190  and  _192
REMARK   83  A    between atoms: _192  and  _193
REMARK   84  A    between atoms: _192  and  _195
REMARK   85  A    between atoms: _195  and  _196
REMARK   86  A    between atoms: _200  and  _201
REMARK   87  A    between atoms: _206  and  _208
REMARK   88  A    between atoms: _208  and  _209
REMARK   89  A    between atoms: _212  and  _214
REMARK   90  A    between atoms: _214  and  _215
REMARK   91  A    between atoms: _214  and  _217
REMARK   92  A    between atoms: _217  and  _218
REMARK   93  A    between atoms: _223  and  _225
REMARK   94  A    between atoms: _225  and  _226
REMARK   95  A    between atoms: _225  and  _228
REMARK   96  A    between atoms: _228  and  _229
REMARK   97  A    between atoms: _232  and  _234
REMARK   98  A    between atoms: _234  and  _235
REMARK   99  A    between atoms: _234  and  _237
REMARK  100  A    between atoms: _237  and  _238
REMARK  101  A    between atoms: _241  and  _243
REMARK  102  A    between atoms: _243  and  _244
REMARK  103  A    between atoms: _246  and  _248
REMARK  104  A    between atoms: _248  and  _249
REMARK  105  A    between atoms: _248  and  _251
REMARK  106  A    between atoms: _251  and  _252
REMARK  107  A    between atoms: _252  and  _253
REMARK  108  A    between atoms: _253  and  _254
REMARK  109  A    between atoms: _263  and  _265
REMARK  110  A    between atoms: _265  and  _266
REMARK  111  A    between atoms: _265  and  _268
REMARK  112  A    between atoms: _268  and  _269
REMARK  113  A    between atoms: _274  and  _276
REMARK  114  A    between atoms: _276  and  _277
REMARK  115  A    between atoms: _276  and  _279
REMARK  116  A    between atoms: _279  and  _280
REMARK  117  A    between atoms: _280  and  _281
REMARK  118  A    between atoms: _281  and  _282
REMARK  119  A    between atoms: _291  and  _293
REMARK  120  A    between atoms: _293  and  _294
REMARK  121  A    between atoms: _293  and  _296
REMARK  122  A    between atoms: _296  and  _297
REMARK  123  A    between atoms: _300  and  _302
REMARK  124  A    between atoms: _302  and  _303
REMARK  125  A    between atoms: _302  and  _305
REMARK  126  A    between atoms: _305  and  _306
REMARK  127  A    between atoms: _309  and  _311
REMARK  128  A    between atoms: _311  and  _312
REMARK  129  A    between atoms: _311  and  _314
REMARK  130  A    between atoms: _314  and  _315
REMARK  131  A    between atoms: _318  and  _320
REMARK  132  A    between atoms: _320  and  _321
REMARK  133  A    between atoms: _320  and  _323
REMARK  134  A    between atoms: _323  and  _324
REMARK  135  A    between atoms: _327  and  _329
REMARK  136  A    between atoms: _329  and  _330
REMARK  137  A    between atoms: _332  and  _334
REMARK  138  A    between atoms: _334  and  _335
REMARK  139  A    between atoms: _338  and  _340
REMARK  140  A    between atoms: _340  and  _341
REMARK  141  A    between atoms: _340  and  _343
REMARK  142  A    between atoms: _343  and  _344
REMARK  143  A    between atoms: _347  and  _349
REMARK  144  A    between atoms: _349  and  _350
REMARK  145  A    between atoms: _349  and  _352
REMARK  146  A    between atoms: _352  and  _353
REMARK  147  A    between atoms: _356  and  _358
REMARK  148  A    between atoms: _358  and  _359
REMARK  149  A    between atoms: _358  and  _361
REMARK  150  A    between atoms: _361  and  _362
REMARK  151  A    between atoms: _365  and  _367
REMARK  152  A    between atoms: _367  and  _368
REMARK  153  A    between atoms: _367  and  _370
REMARK  154  A    between atoms: _373  and  _375
REMARK  155  A    between atoms: _375  and  _376
REMARK  156  A    between atoms: _375  and  _378
REMARK  157  A    between atoms: _378  and  _379
REMARK  158  A    between atoms: _382  and  _384
REMARK  159  A    between atoms: _384  and  _385
REMARK  160  A    between atoms: _387  and  _389
REMARK  161  A    between atoms: _389  and  _390
REMARK  162  A    between atoms: _392  and  _394
REMARK  163  A    between atoms: _394  and  _395
REMARK  164  A    between atoms: _394  and  _397
REMARK  165  A    between atoms: _397  and  _398
REMARK  166  A    between atoms: _401  and  _403
REMARK  167  A    between atoms: _403  and  _404
REMARK  168  A    between atoms: _406  and  _408
REMARK  169  A    between atoms: _408  and  _409
REMARK  170  A    between atoms: _411  and  _413
REMARK  171  A    between atoms: _413  and  _414
REMARK  172  A    between atoms: _413  and  _416
REMARK  173  A    between atoms: _416  and  _417
REMARK  174  A    between atoms: _420  and  _422
REMARK  175  A    between atoms: _422  and  _423
REMARK  176  A    between atoms: _422  and  _425
REMARK  177  A    between atoms: _425  and  _426
REMARK  178  A    between atoms: _430  and  _431
REMARK  179  A    between atoms: _436  and  _438
REMARK  180  A    between atoms: _438  and  _439
REMARK  181  A    between atoms: _442  and  _444
REMARK  182  A    between atoms: _444  and  _445
REMARK  183  A    between atoms: _444  and  _447
REMARK  184  A    between atoms: _447  and  _448
REMARK  185  A    between atoms: _453  and  _455
REMARK  186  A    between atoms: _455  and  _456
REMARK  187  A    between atoms: _455  and  _458
REMARK  188  A    between atoms: _458  and  _459
REMARK  189  A    between atoms: _462  and  _464
REMARK  190  A    between atoms: _464  and  _465
REMARK  191  A    between atoms: _464  and  _467
REMARK  192  A    between atoms: _467  and  _468
REMARK  193  A    between atoms: _471  and  _473
REMARK  194  A    between atoms: _473  and  _474
REMARK  195  A    between atoms: _476  and  _478
REMARK  196  A    between atoms: _478  and  _479
REMARK  197  A    between atoms: _478  and  _481
REMARK  198  A    between atoms: _481  and  _482
REMARK  199  A    between atoms: _482  and  _483
REMARK  200  A    between atoms: _483  and  _484
REMARK  201  A    between atoms: _493  and  _495
REMARK  202  A    between atoms: _495  and  _496
REMARK  203  A    between atoms: _495  and  _498
REMARK  204  A    between atoms: _498  and  _499
REMARK                            x       y       z     vdW  Elec       q    Type
REMARK                         _______ _______ _______ _____ _____    ______ ____
ROOT
ATOM      1  C   GLY A   3      19.159  31.033   8.699  0.00  0.00    +0.243 C 
ATOM      2  N   ILE A   4      18.710  31.787   9.705  0.00  0.00    -0.297 N 
ATOM      3  H   ILE A   4      19.335  32.050  10.494  0.00  0.00    +0.150 HD
ATOM      4  O   GLY A   3      18.517  30.851   7.671  0.00  0.00    -0.273 OA
ENDROOT
BRANCH   2   5
ATOM      5  CA  ILE A   4      17.312  32.236   9.670  0.00  0.00    +0.149 C 
BRANCH   5   6
ATOM      6  C   ILE A   4      17.067  33.217   8.545  0.00  0.00    +0.241 C 
ATOM      7  N   GLY A   5      18.119  33.993   8.173  0.00  0.00    -0.295 N 
ATOM      8  H   GLY A   5      19.057  33.819   8.586  0.00  0.00    +0.150 HD
ATOM      9  O   ILE A   4      15.956  33.302   8.018  0.00  0.00    -0.273 OA
BRANCH   7  10
ATOM     10  CA  GLY A   5      17.949  35.062   7.206  0.00  0.00    +0.176 C 
BRANCH  10  11
ATOM     11  C   GLY A   5      18.526  34.793   5.842  0.00  0.00    +0.243 C 
ATOM     12  N   GLY A   6      19.072  33.629   5.566  0.00  0.00    -0.296 N 
ATOM     13  H   GLY A   6      19.086  32.897   6.305  0.00  0.00    +0.150 HD
ATOM     14  O   GLY A   5      18.490  35.661   4.982  0.00  0.00    -0.273 OA
BRANCH  12  15
ATOM     15  CA  GLY A   6      19.664  33.319   4.256  0.00  0.00    +0.163 C 
BRANCH  15  16
ATOM     16  C   GLY A   6      21.058  32.663   4.476  0.00  0.00    +0.229 C 
ATOM     17  O   GLY A   6      21.386  32.159   5.502  0.00  0.00    -0.286 OA
ENDBRANCH  15  16
ENDBRANCH  12  15
ENDBRANCH  10  11
ENDBRANCH   7  10
ENDBRANCH   5   6
BRANCH   5  18
ATOM     18  CB  ILE A   4      16.892  32.846  11.025  0.00  0.00    +0.027 C 
ATOM     19  CG2 ILE A   4      17.448  34.249  11.176  0.00  0.00    +0.002 C 
BRANCH  18  20
ATOM     20  CG1 ILE A   4      15.381  32.730  11.201  0.00  0.00    +0.002 C 
ATOM     21  CD1 ILE A   4      14.885  33.233  12.534  0.00  0.00    +0.000 C 
ENDBRANCH  18  20
ENDBRANCH   5  18
ENDBRANCH   2   5
BRANCH   1  22
ATOM     22  CA  GLY A   3      20.535  30.428   8.920  0.00  0.00    +0.176 C 
BRANCH  22  25
ATOM     23  C   GLY A   2      21.729  29.063   7.258  0.00  0.00    +0.243 C 
ATOM     24  O   GLY A   2      21.746  28.106   8.004  0.00  0.00    -0.273 OA
ATOM     25  N   GLY A   3      21.157  30.191   7.641  0.00  0.00    -0.295 N 
ATOM     26  H   GLY A   3      21.155  30.977   6.960  0.00  0.00    +0.150 HD
BRANCH  23  27
ATOM     27  CA  GLY A   2      22.326  29.071   5.868  0.00  0.00    +0.176 C 
BRANCH  27  29
ATOM     28  C   ILE A   1      24.702  28.871   5.514  0.00  0.00    +0.238 C 
ATOM     29  N   GLY A   2      23.539  28.298   5.793  0.00  0.00    -0.296 N 
ATOM     30  H   GLY A   2      23.502  27.272   5.961  0.00  0.00    +0.150 HD
ATOM     31  O   ILE A   1      24.822  30.066   5.334  0.00  0.00    -0.274 OA
BRANCH  28  32
ATOM     32  CA  ILE A   1      25.920  27.952   5.452  0.00  0.00    +0.145 C 
BRANCH  32  33
ATOM     33  N   ILE A   1      26.797  28.437   4.392  0.00  0.00    -0.238 NA
ATOM     34  H   ILE A   1      26.960  29.459   4.286  0.00  0.00    +0.142 HD
ENDBRANCH  32  33
BRANCH  32  35
ATOM     35  CB  ILE A   1      26.675  27.869   6.799  0.00  0.00    +0.025 C 
ATOM     36  CG2 ILE A   1      27.155  29.225   7.313  0.00  0.00    +0.002 C 
BRANCH  35  37
ATOM     37  CG1 ILE A   1      25.901  27.163   7.930  0.00  0.00    +0.002 C 
ATOM     38  CD1 ILE A   1      25.633  25.713   7.604  0.00  0.00    +0.000 C 
ENDBRANCH  35  37
ENDBRANCH  32  35
ENDBRANCH  28  32
ENDBRANCH  27  29
ENDBRANCH  23  27
ENDBRANCH  22  25
ENDBRANCH   1  22
TORSDOF 16
REMARK  Name = ../refined-set-2016/2qd7/2qd7_pocket.pdb
REMARK  204 active torsions:
REMARK  status: ('A' for Active; 'I' for Inactive)
REMARK    1  A    between atoms: _1  and  _3
REMARK    2  A    between atoms: _3  and  _4
REMARK    3  A    between atoms: _3  and  _6
REMARK    4  A    between atoms: _6  and  _7
REMARK    5  A    between atoms: _7  and  _8
REMARK    6  A    between atoms: _8  and  _9
REMARK    7  A    between atoms: _18  and  _20
REMARK    8  A    between atoms: _20  and  _21
REMARK    9  A    between atoms: _20  and  _23
REMARK   10  A    between atoms: _23  and  _24
REMARK   11  A    between atoms: _27  and  _29
REMARK   12  A    between atoms: _29  and  _30
REMARK   13  A    between atoms: _29  and  _32
REMARK   14  A    between atoms: _32  and  _33
REMARK   15  A    between atoms: _36  and  _38
REMARK   16  A    between atoms: _38  and  _39
REMARK   17  A    between atoms: _38  and  _41
REMARK   18  A    between atoms: _41  and  _42
REMARK   19  A    between atoms: _45  and  _47
REMARK   20  A    between atoms: _47  and  _48
REMARK   21  A    between atoms: _47  and  _50
REMARK   22  A    between atoms: _50  and  _51
REMARK   23  A    between atoms: _54  and  _56
REMARK   24  A    between atoms: _56  and  _57
REMARK   25  A    between atoms: _59  and  _61
REMARK   26  A    between atoms: _61  and  _62
REMARK   27  A    between atoms: _65  and  _67
REMARK   28  A    between atoms: _67  and  _68
REMARK   29  A    between atoms: _67  and  _70
REMARK   30  A    between atoms: _70  and  _71
REMARK   31  A    between atoms: _74  and  _76
REMARK   32  A    between atoms: _76  and  _77
REMARK   33  A    between atoms: _76  and  _79
REMARK   34  A    between atoms: _79  and  _80
REMARK   35  A    between atoms: _83  and  _85
REMARK   36  A    between atoms: _85  and  _86
REMARK   37  A    between atoms: _85  and  _88
REMARK   38  A    between atoms: _88  and  _89
REMARK   39  A    between atoms: _92  and  _94
REMARK   40  A    between atoms: _94  and  _95
REMARK   41  A    between atoms: _94  and  _97
REMARK   42  A    between atoms: _100  and  _102
REMARK   43  A    between atoms: _102  and  _103
REMARK   44  A    between atoms: _102  and  _105
REMARK   45  A    between atoms: _105  and  _106
REMARK   46  A    between atoms: _106  and  _107
REMARK   47  A    between atoms: _107  and  _108
REMARK   48  A    between atoms: _108  and  _109
REMARK   49  A    between atoms: _113  and  _115
REMARK   50  A    between atoms: _115  and  _116
REMARK   51  A    between atoms: _115  and  _118
REMARK   52  A    between atoms: _118  and  _119
REMARK   53  A    between atoms: _119  and  _120
REMARK   54  A    between atoms: _122  and  _124
REMARK   55  A    between atoms: _124  and  _125
REMARK   56  A    between atoms: _124  and  _127
REMARK   57  A    between atoms: _127  and  _128
REMARK   58  A    between atoms: _131  and  _133
REMARK   59  A    between atoms: _133  and  _134
REMARK   60  A    between atoms: _136  and  _138
REMARK   61  A    between atoms: _138  and  _139
REMARK   62  A    between atoms: _141  and  _143
REMARK   63  A    between atoms: _143  and  _144
REMARK   64  A    between atoms: _143  and  _146
REMARK   65  A    between atoms: _146  and  _147
REMARK   66  A    between atoms: _150  and  _152
REMARK   67  A    between atoms: _152  and  _153
REMARK   68  A    between atoms: _155  and  _157
REMARK   69  A    between atoms: _157  and  _158
REMARK   70  A    between atoms: _160  and  _162
REMARK   71  A    between atoms: _162  and  _163
REMARK   72  A    between atoms: _162  and  _165
REMARK   73  A    between atoms: _165  and  _166
REMARK   74  A    between atoms: _172  and  _174
REMARK   75  A    between atoms: _174  and  _175
REMARK   76  A    between atoms: _174  and  _177
REMARK   77  A    between atoms: _177  and  _178
REMARK   78  A    between atoms: _181  and  _183
REMARK   79  A    between atoms: _183  and  _184
REMARK   80  A    between atoms: _183  and  _186
REMARK   81  A    between atoms: _186  and  _187
REMARK   82  A    between atoms: _190  and  _192
REMARK   83  A    between atoms: _192  and  _193
REMARK   84  A    between atoms: _192  and  _195
REMARK   85  A    between atoms: _195  and  _196
REMARK   86  A    between atoms: _200  and  _201
REMARK   87  A    between atoms: _206  and  _208
REMARK   88  A    between atoms: _208  and  _209
REMARK   89  A    between atoms: _212  and  _214
REMARK   90  A    between atoms: _214  and  _215
REMARK   91  A    between atoms: _214  and  _217
REMARK   92  A    between atoms: _217  and  _218
REMARK   93  A    between atoms: _223  and  _225
REMARK   94  A    between atoms: _225  and  _226
REMARK   95  A    between atoms: _225  and  _228
REMARK   96  A    between atoms: _228  and  _229
REMARK   97  A    between atoms: _232  and  _234
REMARK   98  A    between atoms: _234  and  _235
REMARK   99  A    between atoms: _234  and  _237
REMARK  100  A    between atoms: _237  and  _238
REMARK  101  A    between atoms: _241  and  _243
REMARK  102  A    between atoms: _243  and  _244
REMARK  103  A    between atoms: _246  and  _248
REMARK  104  A    between atoms: _248  and  _249
REMARK  105  A    between atoms: _248  and  _251
REMARK  106  A    between atoms: _251  and  _252
REMARK  107  A    between atoms: _252  and  _253
REMARK  108  A    between atoms: _253  and  _254
REMARK  109  A    between atoms: _263  and  _265
REMARK  110  A    between atoms: _265  and  _266
REMARK  111  A    between atoms: _265  and  _268
REMARK  112  A    between atoms: _268  and  _269
REMARK  113  A    between atoms: _274  and  _276
REMARK  114  A    between atoms: _276  and  _277
REMARK  115  A    between atoms: _276  and  _279
REMARK  116  A    between atoms: _279  and  _280
REMARK  117  A    between atoms: _280  and  _281
REMARK  118  A    between atoms: _281  and  _282
REMARK  119  A    between atoms: _291  and  _293
REMARK  120  A    between atoms: _293  and  _294
REMARK  121  A    between atoms: _293  and  _296
REMARK  122  A    between atoms: _296  and  _297
REMARK  123  A    between atoms: _300  and  _302
REMARK  124  A    between atoms: _302  and  _303
REMARK  125  A    between atoms: _302  and  _305
REMARK  126  A    between atoms: _305  and  _306
REMARK  127  A    between atoms: _309  and  _311
REMARK  128  A    between atoms: _311  and  _312
REMARK  129  A    between atoms: _311  and  _314
REMARK  130  A    between atoms: _314  and  _315
REMARK  131  A    between atoms: _318  and  _320
REMARK  132  A    between atoms: _320  and  _321
REMARK  133  A    between atoms: _320  and  _323
REMARK  134  A    between atoms: _323  and  _324
REMARK  135  A    between atoms: _327  and  _329
REMARK  136  A    between atoms: _329  and  _330
REMARK  137  A    between atoms: _332  and  _334
REMARK  138  A    between atoms: _334  and  _335
REMARK  139  A    between atoms: _338  and  _340
REMARK  140  A    between atoms: _340  and  _341
REMARK  141  A    between atoms: _340  and  _343
REMARK  142  A    between atoms: _343  and  _344
REMARK  143  A    between atoms: _347  and  _349
REMARK  144  A    between atoms: _349  and  _350
REMARK  145  A    between atoms: _349  and  _352
REMARK  146  A    between atoms: _352  and  _353
REMARK  147  A    between atoms: _356  and  _358
REMARK  148  A    between atoms: _358  and  _359
REMARK  149  A    between atoms: _358  and  _361
REMARK  150  A    between atoms: _361  and  _362
REMARK  151  A    between atoms: _365  and  _367
REMARK  152  A    between atoms: _367  and  _368
REMARK  153  A    between atoms: _367  and  _370
REMARK  154  A    between atoms: _373  and  _375
REMARK  155  A    between atoms: _375  and  _376
REMARK  156  A    between atoms: _375  and  _378
REMARK  157  A    between atoms: _378  and  _379
REMARK  158  A    between atoms: _382  and  _384
REMARK  159  A    between atoms: _384  and  _385
REMARK  160  A    between atoms: _387  and  _389
REMARK  161  A    between atoms: _389  and  _390
REMARK  162  A    between atoms: _392  and  _394
REMARK  163  A    between atoms: _394  and  _395
REMARK  164  A    between atoms: _394  and  _397
REMARK  165  A    between atoms: _397  and  _398
REMARK  166  A    between atoms: _401  and  _403
REMARK  167  A    between atoms: _403  and  _404
REMARK  168  A    between atoms: _406  and  _408
REMARK  169  A    between atoms: _408  and  _409
REMARK  170  A    between atoms: _411  and  _413
REMARK  171  A    between atoms: _413  and  _414
REMARK  172  A    between atoms: _413  and  _416
REMARK  173  A    between atoms: _416  and  _417
REMARK  174  A    between atoms: _420  and  _422
REMARK  175  A    between atoms: _422  and  _423
REMARK  176  A    between atoms: _422  and  _425
REMARK  177  A    between atoms: _425  and  _426
REMARK  178  A    between atoms: _430  and  _431
REMARK  179  A    between atoms: _436  and  _438
REMARK  180  A    between atoms: _438  and  _439
REMARK  181  A    between atoms: _442  and  _444
REMARK  182  A    between atoms: _444  and  _445
REMARK  183  A    between atoms: _444  and  _447
REMARK  184  A    between atoms: _447  and  _448
REMARK  185  A    between atoms: _453  and  _455
REMARK  186  A    between atoms: _455  and  _456
REMARK  187  A    between atoms: _455  and  _458
REMARK  188  A    between atoms: _458  and  _459
REMARK  189  A    between atoms: _462  and  _464
REMARK  190  A    between atoms: _464  and  _465
REMARK  191  A    between atoms: _464  and  _467
REMARK  192  A    between atoms: _467  and  _468
REMARK  193  A    between atoms: _471  and  _473
REMARK  194  A    between atoms: _473  and  _474
REMARK  195  A    between atoms: _476  and  _478
REMARK  196  A    between atoms: _478  and  _479
REMARK  197  A    between atoms: _478  and  _481
REMARK  198  A    between atoms: _481  and  _482
REMARK  199  A    between atoms: _482  and  _483
REMARK  200  A    between atoms: _483  and  _484
REMARK  201  A    between atoms: _493  and  _495
REMARK  202  A    between atoms: _495  and  _496
REMARK  203  A    between atoms: _495  and  _498
REMARK  204  A    between atoms: _498  and  _499
REMARK                            x       y       z     vdW  Elec       q    Type
REMARK                         _______ _______ _______ _____ _____    ______ ____
ROOT
ATOM      1  CA  LEU A   1      33.052  27.572  10.060  0.00  0.00    +0.133 C 
ENDROOT
BRANCH   1   2
ATOM      2  N   LEU A   1      33.333  26.724  11.217  0.00  0.00    -0.239 NA
ATOM      3  H   LEU A   1      32.618  26.663  11.970  0.00  0.00    +0.142 HD
ENDBRANCH   1   2
BRANCH   1   4
ATOM      4  C   LEU A   1      33.362  28.992  10.480  0.00  0.00    +0.224 C 
ATOM      5  O   LEU A   1      32.825  29.430  11.519  0.00  0.00    -0.287 OA
ENDBRANCH   1   4
BRANCH   1   6
ATOM      6  CB  LEU A   1      31.614  27.425   9.630  0.00  0.00    +0.025 C 
BRANCH   6   7
ATOM      7  CG  LEU A   1      31.128  26.001   9.375  0.00  0.00    +0.002 C 
ATOM      8  CD2 LEU A   1      29.667  26.002   8.938  0.00  0.00    +0.000 C 
ATOM      9  CD1 LEU A   1      32.001  25.285   8.371  0.00  0.00    +0.000 C 
ENDBRANCH   6   7
ENDBRANCH   1   6
TORSDOF 4
REMARK  Name = ../refined-set-2016/2qd7/2qd7_pocket.pdb
REMARK  204 active torsions:
REMARK  status: ('A' for Active; 'I' for Inactive)
REMARK    1  A    between atoms: _1  and  _3
REMARK    2  A    between atoms: _3  and  _4
REMARK    3  A    between atoms: _3  and  _6
REMARK    4  A    between atoms: _6  and  _7
REMARK    5  A    between atoms: _7  and  _8
REMARK    6  A    between atoms: _8  and  _9
REMARK    7  A    between atoms: _18  and  _20
REMARK    8  A    between atoms: _20  and  _21
REMARK    9  A    between atoms: _20  and  _23
REMARK   10  A    between atoms: _23  and  _24
REMARK   11  A    between atoms: _27  and  _29
REMARK   12  A    between atoms: _29  and  _30
REMARK   13  A    between atoms: _29  and  _32
REMARK   14  A    between atoms: _32  and  _33
REMARK   15  A    between atoms: _36  and  _38
REMARK   16  A    between atoms: _38  and  _39
REMARK   17  A    between atoms: _38  and  _41
REMARK   18  A    between atoms: _41  and  _42
REMARK   19  A    between atoms: _45  and  _47
REMARK   20  A    between atoms: _47  and  _48
REMARK   21  A    between atoms: _47  and  _50
REMARK   22  A    between atoms: _50  and  _51
REMARK   23  A    between atoms: _54  and  _56
REMARK   24  A    between atoms: _56  and  _57
REMARK   25  A    between atoms: _59  and  _61
REMARK   26  A    between atoms: _61  and  _62
REMARK   27  A    between atoms: _65  and  _67
REMARK   28  A    between atoms: _67  and  _68
REMARK   29  A    between atoms: _67  and  _70
REMARK   30  A    between atoms: _70  and  _71
REMARK   31  A    between atoms: _74  and  _76
REMARK   32  A    between atoms: _76  and  _77
REMARK   33  A    between atoms: _76  and  _79
REMARK   34  A    between atoms: _79  and  _80
REMARK   35  A    between atoms: _83  and  _85
REMARK   36  A    between atoms: _85  and  _86
REMARK   37  A    between atoms: _85  and  _88
REMARK   38  A    between atoms: _88  and  _89
REMARK   39  A    between atoms: _92  and  _94
REMARK   40  A    between atoms: _94  and  _95
REMARK   41  A    between atoms: _94  and  _97
REMARK   42  A    between atoms: _100  and  _102
REMARK   43  A    between atoms: _102  and  _103
REMARK   44  A    between atoms: _102  and  _105
REMARK   45  A    between atoms: _105  and  _106
REMARK   46  A    between atoms: _106  and  _107
REMARK   47  A    between atoms: _107  and  _108
REMARK   48  A    between atoms: _108  and  _109
REMARK   49  A    between atoms: _113  and  _115
REMARK   50  A    between atoms: _115  and  _116
REMARK   51  A    between atoms: _115  and  _118
REMARK   52  A    between atoms: _118  and  _119
REMARK   53  A    between atoms: _119  and  _120
REMARK   54  A    between atoms: _122  and  _124
REMARK   55  A    between atoms: _124  and  _125
REMARK   56  A    between atoms: _124  and  _127
REMARK   57  A    between atoms: _127  and  _128
REMARK   58  A    between atoms: _131  and  _133
REMARK   59  A    between atoms: _133  and  _134
REMARK   60  A    between atoms: _136  and  _138
REMARK   61  A    between atoms: _138  and  _139
REMARK   62  A    between atoms: _141  and  _143
REMARK   63  A    between atoms: _143  and  _144
REMARK   64  A    between atoms: _143  and  _146
REMARK   65  A    between atoms: _146  and  _147
REMARK   66  A    between atoms: _150  and  _152
REMARK   67  A    between atoms: _152  and  _153
REMARK   68  A    between atoms: _155  and  _157
REMARK   69  A    between atoms: _157  and  _158
REMARK   70  A    between atoms: _160  and  _162
REMARK   71  A    between atoms: _162  and  _163
REMARK   72  A    between atoms: _162  and  _165
REMARK   73  A    between atoms: _165  and  _166
REMARK   74  A    between atoms: _172  and  _174
REMARK   75  A    between atoms: _174  and  _175
REMARK   76  A    between atoms: _174  and  _177
REMARK   77  A    between atoms: _177  and  _178
REMARK   78  A    between atoms: _181  and  _183
REMARK   79  A    between atoms: _183  and  _184
REMARK   80  A    between atoms: _183  and  _186
REMARK   81  A    between atoms: _186  and  _187
REMARK   82  A    between atoms: _190  and  _192
REMARK   83  A    between atoms: _192  and  _193
REMARK   84  A    between atoms: _192  and  _195
REMARK   85  A    between atoms: _195  and  _196
REMARK   86  A    between atoms: _200  and  _201
REMARK   87  A    between atoms: _206  and  _208
REMARK   88  A    between atoms: _208  and  _209
REMARK   89  A    between atoms: _212  and  _214
REMARK   90  A    between atoms: _214  and  _215
REMARK   91  A    between atoms: _214  and  _217
REMARK   92  A    between atoms: _217  and  _218
REMARK   93  A    between atoms: _223  and  _225
REMARK   94  A    between atoms: _225  and  _226
REMARK   95  A    between atoms: _225  and  _228
REMARK   96  A    between atoms: _228  and  _229
REMARK   97  A    between atoms: _232  and  _234
REMARK   98  A    between atoms: _234  and  _235
REMARK   99  A    between atoms: _234  and  _237
REMARK  100  A    between atoms: _237  and  _238
REMARK  101  A    between atoms: _241  and  _243
REMARK  102  A    between atoms: _243  and  _244
REMARK  103  A    between atoms: _246  and  _248
REMARK  104  A    between atoms: _248  and  _249
REMARK  105  A    between atoms: _248  and  _251
REMARK  106  A    between atoms: _251  and  _252
REMARK  107  A    between atoms: _252  and  _253
REMARK  108  A    between atoms: _253  and  _254
REMARK  109  A    between atoms: _263  and  _265
REMARK  110  A    between atoms: _265  and  _266
REMARK  111  A    between atoms: _265  and  _268
REMARK  112  A    between atoms: _268  and  _269
REMARK  113  A    between atoms: _274  and  _276
REMARK  114  A    between atoms: _276  and  _277
REMARK  115  A    between atoms: _276  and  _279
REMARK  116  A    between atoms: _279  and  _280
REMARK  117  A    between atoms: _280  and  _281
REMARK  118  A    between atoms: _281  and  _282
REMARK  119  A    between atoms: _291  and  _293
REMARK  120  A    between atoms: _293  and  _294
REMARK  121  A    between atoms: _293  and  _296
REMARK  122  A    between atoms: _296  and  _297
REMARK  123  A    between atoms: _300  and  _302
REMARK  124  A    between atoms: _302  and  _303
REMARK  125  A    between atoms: _302  and  _305
REMARK  126  A    between atoms: _305  and  _306
REMARK  127  A    between atoms: _309  and  _311
REMARK  128  A    between atoms: _311  and  _312
REMARK  129  A    between atoms: _311  and  _314
REMARK  130  A    between atoms: _314  and  _315
REMARK  131  A    between atoms: _318  and  _320
REMARK  132  A    between atoms: _320  and  _321
REMARK  133  A    between atoms: _320  and  _323
REMARK  134  A    between atoms: _323  and  _324
REMARK  135  A    between atoms: _327  and  _329
REMARK  136  A    between atoms: _329  and  _330
REMARK  137  A    between atoms: _332  and  _334
REMARK  138  A    between atoms: _334  and  _335
REMARK  139  A    between atoms: _338  and  _340
REMARK  140  A    between atoms: _340  and  _341
REMARK  141  A    between atoms: _340  and  _343
REMARK  142  A    between atoms: _343  and  _344
REMARK  143  A    between atoms: _347  and  _349
REMARK  144  A    between atoms: _349  and  _350
REMARK  145  A    between atoms: _349  and  _352
REMARK  146  A    between atoms: _352  and  _353
REMARK  147  A    between atoms: _356  and  _358
REMARK  148  A    between atoms: _358  and  _359
REMARK  149  A    between atoms: _358  and  _361
REMARK  150  A    between atoms: _361  and  _362
REMARK  151  A    between atoms: _365  and  _367
REMARK  152  A    between atoms: _367  and  _368
REMARK  153  A    between atoms: _367  and  _370
REMARK  154  A    between atoms: _373  and  _375
REMARK  155  A    between atoms: _375  and  _376
REMARK  156  A    between atoms: _375  and  _378
REMARK  157  A    between atoms: _378  and  _379
REMARK  158  A    between atoms: _382  and  _384
REMARK  159  A    between atoms: _384  and  _385
REMARK  160  A    between atoms: _387  and  _389
REMARK  161  A    between atoms: _389  and  _390
REMARK  162  A    between atoms: _392  and  _394
REMARK  163  A    between atoms: _394  and  _395
REMARK  164  A    between atoms: _394  and  _397
REMARK  165  A    between atoms: _397  and  _398
REMARK  166  A    between atoms: _401  and  _403
REMARK  167  A    between atoms: _403  and  _404
REMARK  168  A    between atoms: _406  and  _408
REMARK  169  A    between atoms: _408  and  _409
REMARK  170  A    between atoms: _411  and  _413
REMARK  171  A    between atoms: _413  and  _414
REMARK  172  A    between atoms: _413  and  _416
REMARK  173  A    between atoms: _416  and  _417
REMARK  174  A    between atoms: _420  and  _422
REMARK  175  A    between atoms: _422  and  _423
REMARK  176  A    between atoms: _422  and  _425
REMARK  177  A    between atoms: _425  and  _426
REMARK  178  A    between atoms: _430  and  _431
REMARK  179  A    between atoms: _436  and  _438
REMARK  180  A    between atoms: _438  and  _439
REMARK  181  A    between atoms: _442  and  _444
REMARK  182  A    between atoms: _444  and  _445
REMARK  183  A    between atoms: _444  and  _447
REMARK  184  A    between atoms: _447  and  _448
REMARK  185  A    between atoms: _453  and  _455
REMARK  186  A    between atoms: _455  and  _456
REMARK  187  A    between atoms: _455  and  _458
REMARK  188  A    between atoms: _458  and  _459
REMARK  189  A    between atoms: _462  and  _464
REMARK  190  A    between atoms: _464  and  _465
REMARK  191  A    between atoms: _464  and  _467
REMARK  192  A    between atoms: _467  and  _468
REMARK  193  A    between atoms: _471  and  _473
REMARK  194  A    between atoms: _473  and  _474
REMARK  195  A    between atoms: _476  and  _478
REMARK  196  A    between atoms: _478  and  _479
REMARK  197  A    between atoms: _478  and  _481
REMARK  198  A    between atoms: _481  and  _482
REMARK  199  A    between atoms: _482  and  _483
REMARK  200  A    between atoms: _483  and  _484
REMARK  201  A    between atoms: _493  and  _495
REMARK  202  A    between atoms: _495  and  _496
REMARK  203  A    between atoms: _495  and  _498
REMARK  204  A    between atoms: _498  and  _499
REMARK                            x       y       z     vdW  Elec       q    Type
REMARK                         _______ _______ _______ _____ _____    ______ ____
ROOT
ATOM      1  C   ILE A   5      28.616  28.592  18.136  0.00  0.00    +0.241 C 
ATOM      2  N   ILE A   6      28.428  27.855  19.226  0.00  0.00    -0.297 N 
ATOM      3  H   ILE A   6      27.933  28.278  20.037  0.00  0.00    +0.150 HD
ATOM      4  O   ILE A   5      29.294  28.215  17.173  0.00  0.00    -0.273 OA
ENDROOT
BRANCH   2   5
ATOM      5  CA  ILE A   6      28.887  26.487  19.326  0.00  0.00    +0.149 C 
BRANCH   5   6
ATOM      6  C   ILE A   6      27.699  25.577  19.074  0.00  0.00    +0.241 C 
ATOM      7  O   ILE A   6      26.733  25.567  19.848  0.00  0.00    -0.273 OA
ATOM      8  N   GLY A   7      27.775  24.851  17.983  0.00  0.00    -0.295 N 
ATOM      9  H   GLY A   7      28.654  24.873  17.428  0.00  0.00    +0.150 HD
BRANCH   8  10
ATOM     10  CA  GLY A   7      26.671  24.012  17.518  0.00  0.00    +0.176 C 
BRANCH  10  11
ATOM     11  C   GLY A   7      26.863  22.548  17.934  0.00  0.00    +0.243 C 
ATOM     12  O   GLY A   7      27.814  22.168  18.627  0.00  0.00    -0.273 OA
ATOM     13  N   ARG A   8      25.901  21.728  17.504  0.00  0.00    -0.297 N 
ATOM     14  H   ARG A   8      25.203  22.062  16.809  0.00  0.00    +0.150 HD
BRANCH  13  15
ATOM     15  CA  ARG A   8      25.832  20.361  18.012  0.00  0.00    +0.149 C 
BRANCH  15  16
ATOM     16  C   ARG A   8      27.066  19.550  17.629  0.00  0.00    +0.241 C 
ATOM     17  O   ARG A   8      27.393  18.605  18.364  0.00  0.00    -0.273 OA
ATOM     18  N   ASN A   9      27.738  19.869  16.530  0.00  0.00    -0.298 N 
ATOM     19  H   ASN A   9      27.422  20.656  15.928  0.00  0.00    +0.150 HD
BRANCH  18  20
ATOM     20  CA  ASN A   9      28.946  19.087  16.173  0.00  0.00    +0.146 C 
BRANCH  20  21
ATOM     21  C   ASN A   9      29.961  19.111  17.301  0.00  0.00    +0.227 C 
ATOM     22  O   ASN A   9      30.684  18.129  17.486  0.00  0.00    -0.286 OA
ENDBRANCH  20  21
BRANCH  20  23
ATOM     23  CB  ASN A   9      29.548  19.589  14.877  0.00  0.00    +0.112 C 
BRANCH  23  24
ATOM     24  CG  ASN A   9      30.232  20.921  14.974  0.00  0.00    +0.222 C 
ATOM     25  OD1 ASN A   9      29.659  21.914  15.412  0.00  0.00    -0.275 OA
ATOM     26  ND2 ASN A   9      31.504  20.927  14.558  0.00  0.00    -0.329 N 
ATOM     27 HD21 ASN A   9      32.060  21.805  14.597  0.00  0.00    +0.145 HD
ATOM     28 HD22 ASN A   9      31.937  20.053  14.196  0.00  0.00    +0.145 HD
ENDBRANCH  23  24
ENDBRANCH  20  23
ENDBRANCH  18  20
ENDBRANCH  15  16
BRANCH  15  29
ATOM     29  CB  ARG A   8      24.566  19.672  17.497  0.00  0.00    +0.033 C 
BRANCH  29  30
ATOM     30  CG  ARG A   8      23.296  20.257  18.073  0.00  0.00    +0.045 C 
BRANCH  30  31
ATOM     31  CD  ARG A   8      22.025  19.481  17.746  0.00  0.00    +0.174 C 
BRANCH  31  32
ATOM     32  NE  ARG A   8      21.834  19.467  16.291  0.00  0.00    -0.265 N 
ATOM     33  HE  ARG A   8      21.392  20.302  15.857  0.00  0.00    +0.259 HD
ATOM     34  CZ  ARG A   8      22.182  18.472  15.488  0.00  0.00    +0.342 C 
ATOM     35  NH2 ARG A   8      22.728  17.346  15.909  0.00  0.00    -0.292 N 
ATOM     36 HH21 ARG A   8      22.908  17.203  16.923  0.00  0.00    +0.255 HD
ATOM     37 HH22 ARG A   8      22.979  16.603  15.226  0.00  0.00    +0.255 HD
ATOM     38  NH1 ARG A   8      21.963  18.622  14.181  0.00  0.00    -0.292 N 
ATOM     39 HH11 ARG A   8      21.532  19.498  13.823  0.00  0.00    +0.255 HD
ATOM     40 HH12 ARG A   8      22.223  17.863  13.520  0.00  0.00    +0.255 HD
ENDBRANCH  31  32
ENDBRANCH  30  31
ENDBRANCH  29  30
ENDBRANCH  15  29
ENDBRANCH  13  15
ENDBRANCH  10  11
ENDBRANCH   8  10
ENDBRANCH   5   6
BRANCH   5  41
ATOM     41  CB  ILE A   6      29.456  26.194  20.719  0.00  0.00    +0.027 C 
ATOM     42  CG2 ILE A   6      29.957  24.755  20.787  0.00  0.00    +0.002 C 
BRANCH  41  43
ATOM     43  CG1 ILE A   6      30.524  27.210  21.158  0.00  0.00    +0.002 C 
ATOM     44  CD1 ILE A   6      31.679  27.317  20.179  0.00  0.00    +0.000 C 
ENDBRANCH  41  43
ENDBRANCH   5  41
ENDBRANCH   2   5
BRANCH   1  45
ATOM     45  CA  ILE A   5      27.911  29.947  18.171  0.00  0.00    +0.149 C 
BRANCH  45  48
ATOM     46  C   ASN A   4      29.085  32.068  18.382  0.00  0.00    +0.241 C 
ATOM     47  O   ASN A   4      28.623  32.300  19.495  0.00  0.00    -0.273 OA
ATOM     48  N   ILE A   5      28.831  30.982  17.696  0.00  0.00    -0.297 N 
ATOM     49  H   ILE A   5      29.301  30.850  16.778  0.00  0.00    +0.150 HD
BRANCH  46  50
ATOM     50  CA  ASN A   4      30.004  33.130  17.775  0.00  0.00    +0.158 C 
BRANCH  50  52
ATOM     51  C   ALA A   3      28.252  34.500  16.794  0.00  0.00    +0.241 C 
ATOM     52  N   ASN A   4      29.238  34.358  17.666  0.00  0.00    -0.297 N 
ATOM     53  H   ASN A   4      29.472  35.153  18.294  0.00  0.00    +0.150 HD
ATOM     54  O   ALA A   3      28.030  33.690  15.915  0.00  0.00    -0.273 OA
BRANCH  51  55
ATOM     55  CA  ALA A   3      27.380  35.742  16.928  0.00  0.00    +0.149 C 
ATOM     56  CB  ALA A   3      26.204  35.367  17.800  0.00  0.00    +0.031 C 
BRANCH  55  59
ATOM     57  C   PRO A   2      26.661  37.476  15.363  0.00  0.00    +0.241 C 
ATOM     58  O   PRO A   2      26.728  38.355  16.268  0.00  0.00    -0.273 OA
ATOM     59  N   ALA A   3      27.005  36.211  15.606  0.00  0.00    -0.297 N 
ATOM     60  H   ALA A   3      27.005  35.533  14.817  0.00  0.00    +0.150 HD
BRANCH  57  64
ATOM     61  C   THR A   1      27.787  36.685  12.608  0.00  0.00    +0.244 C 
ATOM     62  O   THR A   1      28.661  37.418  13.065  0.00  0.00    -0.273 OA
ATOM     63  N   PRO A   2      26.516  36.836  12.947  0.00  0.00    -0.272 N 
ATOM     64  CA  PRO A   2      26.156  37.837  13.976  0.00  0.00    +0.152 C 
ATOM     65  CB  PRO A   2      24.627  37.834  14.023  0.00  0.00    +0.031 C 
ATOM     66  CG  PRO A   2      24.305  36.462  13.508  0.00  0.00    +0.024 C 
ATOM     67  CD  PRO A   2      25.320  36.175  12.434  0.00  0.00    +0.094 C 
BRANCH  61  68
ATOM     68  CA  THR A   1      28.143  35.582  11.650  0.00  0.00    +0.172 C 
BRANCH  68  69
ATOM     69  N   THR A   1      29.281  35.964  10.794  0.00  0.00    -0.236 NA
ATOM     70  H   THR A   1      30.234  35.683  11.103  0.00  0.00    +0.142 HD
ENDBRANCH  68  69
BRANCH  68  71
ATOM     71  CB  THR A   1      28.478  34.273  12.406  0.00  0.00    +0.135 C 
ATOM     72  CG2 THR A   1      29.714  34.373  13.270  0.00  0.00    +0.034 C 
BRANCH  71  73
ATOM     73  OG1 THR A   1      27.381  34.000  13.296  0.00  0.00    -0.383 OA
ATOM     74  HG1 THR A   1      27.564  33.166  13.797  0.00  0.00    +0.210 HD
ENDBRANCH  71  73
ENDBRANCH  68  71
ENDBRANCH  61  68
ENDBRANCH  57  64
ENDBRANCH  55  59
ENDBRANCH  51  55
ENDBRANCH  50  52
BRANCH  50  75
ATOM     75  CB  ASN A   4      31.220  33.270  18.665  0.00  0.00    +0.114 C 
BRANCH  75  76
ATOM     76  CG  ASN A   4      32.235  34.249  18.104  0.00  0.00    +0.222 C 
ATOM     77  ND2 ASN A   4      32.993  34.905  18.990  0.00  0.00    -0.329 N 
ATOM     78 HD21 ASN A   4      32.874  34.728  20.008  0.00  0.00    +0.145 HD
ATOM     79 HD22 ASN A   4      33.701  35.592  18.661  0.00  0.00    +0.145 HD
ATOM     80  OD1 ASN A   4      32.366  34.449  16.895  0.00  0.00    -0.275 OA
ENDBRANCH  75  76
ENDBRANCH  50  75
ENDBRANCH  46  50
ENDBRANCH  45  48
BRANCH  45  81
ATOM     81  CB  ILE A   5      26.623  29.922  17.343  0.00  0.00    +0.027 C 
ATOM     82  CG2 ILE A   5      25.878  31.222  17.539  0.00  0.00    +0.002 C 
BRANCH  81  83
ATOM     83  CG1 ILE A   5      26.838  29.655  15.876  0.00  0.00    +0.002 C 
ATOM     84  CD1 ILE A   5      25.537  29.627  15.059  0.00  0.00    +0.000 C 
ENDBRANCH  81  83
ENDBRANCH  45  81
ENDBRANCH   1  45
TORSDOF 31
REMARK  Name = ../refined-set-2016/2qd7/2qd7_pocket.pdb
REMARK  204 active torsions:
REMARK  status: ('A' for Active; 'I' for Inactive)
REMARK    1  A    between atoms: _1  and  _3
REMARK    2  A    between atoms: _3  and  _4
REMARK    3  A    between atoms: _3  and  _6
REMARK    4  A    between atoms: _6  and  _7
REMARK    5  A    between atoms: _7  and  _8
REMARK    6  A    between atoms: _8  and  _9
REMARK    7  A    between atoms: _18  and  _20
REMARK    8  A    between atoms: _20  and  _21
REMARK    9  A    between atoms: _20  and  _23
REMARK   10  A    between atoms: _23  and  _24
REMARK   11  A    between atoms: _27  and  _29
REMARK   12  A    between atoms: _29  and  _30
REMARK   13  A    between atoms: _29  and  _32
REMARK   14  A    between atoms: _32  and  _33
REMARK   15  A    between atoms: _36  and  _38
REMARK   16  A    between atoms: _38  and  _39
REMARK   17  A    between atoms: _38  and  _41
REMARK   18  A    between atoms: _41  and  _42
REMARK   19  A    between atoms: _45  and  _47
REMARK   20  A    between atoms: _47  and  _48
REMARK   21  A    between atoms: _47  and  _50
REMARK   22  A    between atoms: _50  and  _51
REMARK   23  A    between atoms: _54  and  _56
REMARK   24  A    between atoms: _56  and  _57
REMARK   25  A    between atoms: _59  and  _61
REMARK   26  A    between atoms: _61  and  _62
REMARK   27  A    between atoms: _65  and  _67
REMARK   28  A    between atoms: _67  and  _68
REMARK   29  A    between atoms: _67  and  _70
REMARK   30  A    between atoms: _70  and  _71
REMARK   31  A    between atoms: _74  and  _76
REMARK   32  A    between atoms: _76  and  _77
REMARK   33  A    between atoms: _76  and  _79
REMARK   34  A    between atoms: _79  and  _80
REMARK   35  A    between atoms: _83  and  _85
REMARK   36  A    between atoms: _85  and  _86
REMARK   37  A    between atoms: _85  and  _88
REMARK   38  A    between atoms: _88  and  _89
REMARK   39  A    between atoms: _92  and  _94
REMARK   40  A    between atoms: _94  and  _95
REMARK   41  A    between atoms: _94  and  _97
REMARK   42  A    between atoms: _100  and  _102
REMARK   43  A    between atoms: _102  and  _103
REMARK   44  A    between atoms: _102  and  _105
REMARK   45  A    between atoms: _105  and  _106
REMARK   46  A    between atoms: _106  and  _107
REMARK   47  A    between atoms: _107  and  _108
REMARK   48  A    between atoms: _108  and  _109
REMARK   49  A    between atoms: _113  and  _115
REMARK   50  A    between atoms: _115  and  _116
REMARK   51  A    between atoms: _115  and  _118
REMARK   52  A    between atoms: _118  and  _119
REMARK   53  A    between atoms: _119  and  _120
REMARK   54  A    between atoms: _122  and  _124
REMARK   55  A    between atoms: _124  and  _125
REMARK   56  A    between atoms: _124  and  _127
REMARK   57  A    between atoms: _127  and  _128
REMARK   58  A    between atoms: _131  and  _133
REMARK   59  A    between atoms: _133  and  _134
REMARK   60  A    between atoms: _136  and  _138
REMARK   61  A    between atoms: _138  and  _139
REMARK   62  A    between atoms: _141  and  _143
REMARK   63  A    between atoms: _143  and  _144
REMARK   64  A    between atoms: _143  and  _146
REMARK   65  A    between atoms: _146  and  _147
REMARK   66  A    between atoms: _150  and  _152
REMARK   67  A    between atoms: _152  and  _153
REMARK   68  A    between atoms: _155  and  _157
REMARK   69  A    between atoms: _157  and  _158
REMARK   70  A    between atoms: _160  and  _162
REMARK   71  A    between atoms: _162  and  _163
REMARK   72  A    between atoms: _162  and  _165
REMARK   73  A    between atoms: _165  and  _166
REMARK   74  A    between atoms: _172  and  _174
REMARK   75  A    between atoms: _174  and  _175
REMARK   76  A    between atoms: _174  and  _177
REMARK   77  A    between atoms: _177  and  _178
REMARK   78  A    between atoms: _181  and  _183
REMARK   79  A    between atoms: _183  and  _184
REMARK   80  A    between atoms: _183  and  _186
REMARK   81  A    between atoms: _186  and  _187
REMARK   82  A    between atoms: _190  and  _192
REMARK   83  A    between atoms: _192  and  _193
REMARK   84  A    between atoms: _192  and  _195
REMARK   85  A    between atoms: _195  and  _196
REMARK   86  A    between atoms: _200  and  _201
REMARK   87  A    between atoms: _206  and  _208
REMARK   88  A    between atoms: _208  and  _209
REMARK   89  A    between atoms: _212  and  _214
REMARK   90  A    between atoms: _214  and  _215
REMARK   91  A    between atoms: _214  and  _217
REMARK   92  A    between atoms: _217  and  _218
REMARK   93  A    between atoms: _223  and  _225
REMARK   94  A    between atoms: _225  and  _226
REMARK   95  A    between atoms: _225  and  _228
REMARK   96  A    between atoms: _228  and  _229
REMARK   97  A    between atoms: _232  and  _234
REMARK   98  A    between atoms: _234  and  _235
REMARK   99  A    between atoms: _234  and  _237
REMARK  100  A    between atoms: _237  and  _238
REMARK  101  A    between atoms: _241  and  _243
REMARK  102  A    between atoms: _243  and  _244
REMARK  103  A    between atoms: _246  and  _248
REMARK  104  A    between atoms: _248  and  _249
REMARK  105  A    between atoms: _248  and  _251
REMARK  106  A    between atoms: _251  and  _252
REMARK  107  A    between atoms: _252  and  _253
REMARK  108  A    between atoms: _253  and  _254
REMARK  109  A    between atoms: _263  and  _265
REMARK  110  A    between atoms: _265  and  _266
REMARK  111  A    between atoms: _265  and  _268
REMARK  112  A    between atoms: _268  and  _269
REMARK  113  A    between atoms: _274  and  _276
REMARK  114  A    between atoms: _276  and  _277
REMARK  115  A    between atoms: _276  and  _279
REMARK  116  A    between atoms: _279  and  _280
REMARK  117  A    between atoms: _280  and  _281
REMARK  118  A    between atoms: _281  and  _282
REMARK  119  A    between atoms: _291  and  _293
REMARK  120  A    between atoms: _293  and  _294
REMARK  121  A    between atoms: _293  and  _296
REMARK  122  A    between atoms: _296  and  _297
REMARK  123  A    between atoms: _300  and  _302
REMARK  124  A    between atoms: _302  and  _303
REMARK  125  A    between atoms: _302  and  _305
REMARK  126  A    between atoms: _305  and  _306
REMARK  127  A    between atoms: _309  and  _311
REMARK  128  A    between atoms: _311  and  _312
REMARK  129  A    between atoms: _311  and  _314
REMARK  130  A    between atoms: _314  and  _315
REMARK  131  A    between atoms: _318  and  _320
REMARK  132  A    between atoms: _320  and  _321
REMARK  133  A    between atoms: _320  and  _323
REMARK  134  A    between atoms: _323  and  _324
REMARK  135  A    between atoms: _327  and  _329
REMARK  136  A    between atoms: _329  and  _330
REMARK  137  A    between atoms: _332  and  _334
REMARK  138  A    between atoms: _334  and  _335
REMARK  139  A    between atoms: _338  and  _340
REMARK  140  A    between atoms: _340  and  _341
REMARK  141  A    between atoms: _340  and  _343
REMARK  142  A    between atoms: _343  and  _344
REMARK  143  A    between atoms: _347  and  _349
REMARK  144  A    between atoms: _349  and  _350
REMARK  145  A    between atoms: _349  and  _352
REMARK  146  A    between atoms: _352  and  _353
REMARK  147  A    between atoms: _356  and  _358
REMARK  148  A    between atoms: _358  and  _359
REMARK  149  A    between atoms: _358  and  _361
REMARK  150  A    between atoms: _361  and  _362
REMARK  151  A    between atoms: _365  and  _367
REMARK  152  A    between atoms: _367  and  _368
REMARK  153  A    between atoms: _367  and  _370
REMARK  154  A    between atoms: _373  and  _375
REMARK  155  A    between atoms: _375  and  _376
REMARK  156  A    between atoms: _375  and  _378
REMARK  157  A    between atoms: _378  and  _379
REMARK  158  A    between atoms: _382  and  _384
REMARK  159  A    between atoms: _384  and  _385
REMARK  160  A    between atoms: _387  and  _389
REMARK  161  A    between atoms: _389  and  _390
REMARK  162  A    between atoms: _392  and  _394
REMARK  163  A    between atoms: _394  and  _395
REMARK  164  A    between atoms: _394  and  _397
REMARK  165  A    between atoms: _397  and  _398
REMARK  166  A    between atoms: _401  and  _403
REMARK  167  A    between atoms: _403  and  _404
REMARK  168  A    between atoms: _406  and  _408
REMARK  169  A    between atoms: _408  and  _409
REMARK  170  A    between atoms: _411  and  _413
REMARK  171  A    between atoms: _413  and  _414
REMARK  172  A    between atoms: _413  and  _416
REMARK  173  A    between atoms: _416  and  _417
REMARK  174  A    between atoms: _420  and  _422
REMARK  175  A    between atoms: _422  and  _423
REMARK  176  A    between atoms: _422  and  _425
REMARK  177  A    between atoms: _425  and  _426
REMARK  178  A    between atoms: _430  and  _431
REMARK  179  A    between atoms: _436  and  _438
REMARK  180  A    between atoms: _438  and  _439
REMARK  181  A    between atoms: _442  and  _444
REMARK  182  A    between atoms: _444  and  _445
REMARK  183  A    between atoms: _444  and  _447
REMARK  184  A    between atoms: _447  and  _448
REMARK  185  A    between atoms: _453  and  _455
REMARK  186  A    between atoms: _455  and  _456
REMARK  187  A    between atoms: _455  and  _458
REMARK  188  A    between atoms: _458  and  _459
REMARK  189  A    between atoms: _462  and  _464
REMARK  190  A    between atoms: _464  and  _465
REMARK  191  A    between atoms: _464  and  _467
REMARK  192  A    between atoms: _467  and  _468
REMARK  193  A    between atoms: _471  and  _473
REMARK  194  A    between atoms: _473  and  _474
REMARK  195  A    between atoms: _476  and  _478
REMARK  196  A    between atoms: _478  and  _479
REMARK  197  A    between atoms: _478  and  _481
REMARK  198  A    between atoms: _481  and  _482
REMARK  199  A    between atoms: _482  and  _483
REMARK  200  A    between atoms: _483  and  _484
REMARK  201  A    between atoms: _493  and  _495
REMARK  202  A    between atoms: _495  and  _496
REMARK  203  A    between atoms: _495  and  _498
REMARK  204  A    between atoms: _498  and  _499
REMARK                            x       y       z     vdW  Elec       q    Type
REMARK                         _______ _______ _______ _____ _____    ______ ____
ROOT
ATOM      1  O   HOH     1      20.392  32.546  23.819  0.00  0.00    +0.000 OA
ENDROOT
TORSDOF 0
REMARK  Name = ../refined-set-2016/2qd7/2qd7_pocket.pdb
REMARK  204 active torsions:
REMARK  status: ('A' for Active; 'I' for Inactive)
REMARK    1  A    between atoms: _1  and  _3
REMARK    2  A    between atoms: _3  and  _4
REMARK    3  A    between atoms: _3  and  _6
REMARK    4  A    between atoms: _6  and  _7
REMARK    5  A    between atoms: _7  and  _8
REMARK    6  A    between atoms: _8  and  _9
REMARK    7  A    between atoms: _18  and  _20
REMARK    8  A    between atoms: _20  and  _21
REMARK    9  A    between atoms: _20  and  _23
REMARK   10  A    between atoms: _23  and  _24
REMARK   11  A    between atoms: _27  and  _29
REMARK   12  A    between atoms: _29  and  _30
REMARK   13  A    between atoms: _29  and  _32
REMARK   14  A    between atoms: _32  and  _33
REMARK   15  A    between atoms: _36  and  _38
REMARK   16  A    between atoms: _38  and  _39
REMARK   17  A    between atoms: _38  and  _41
REMARK   18  A    between atoms: _41  and  _42
REMARK   19  A    between atoms: _45  and  _47
REMARK   20  A    between atoms: _47  and  _48
REMARK   21  A    between atoms: _47  and  _50
REMARK   22  A    between atoms: _50  and  _51
REMARK   23  A    between atoms: _54  and  _56
REMARK   24  A    between atoms: _56  and  _57
REMARK   25  A    between atoms: _59  and  _61
REMARK   26  A    between atoms: _61  and  _62
REMARK   27  A    between atoms: _65  and  _67
REMARK   28  A    between atoms: _67  and  _68
REMARK   29  A    between atoms: _67  and  _70
REMARK   30  A    between atoms: _70  and  _71
REMARK   31  A    between atoms: _74  and  _76
REMARK   32  A    between atoms: _76  and  _77
REMARK   33  A    between atoms: _76  and  _79
REMARK   34  A    between atoms: _79  and  _80
REMARK   35  A    between atoms: _83  and  _85
REMARK   36  A    between atoms: _85  and  _86
REMARK   37  A    between atoms: _85  and  _88
REMARK   38  A    between atoms: _88  and  _89
REMARK   39  A    between atoms: _92  and  _94
REMARK   40  A    between atoms: _94  and  _95
REMARK   41  A    between atoms: _94  and  _97
REMARK   42  A    between atoms: _100  and  _102
REMARK   43  A    between atoms: _102  and  _103
REMARK   44  A    between atoms: _102  and  _105
REMARK   45  A    between atoms: _105  and  _106
REMARK   46  A    between atoms: _106  and  _107
REMARK   47  A    between atoms: _107  and  _108
REMARK   48  A    between atoms: _108  and  _109
REMARK   49  A    between atoms: _113  and  _115
REMARK   50  A    between atoms: _115  and  _116
REMARK   51  A    between atoms: _115  and  _118
REMARK   52  A    between atoms: _118  and  _119
REMARK   53  A    between atoms: _119  and  _120
REMARK   54  A    between atoms: _122  and  _124
REMARK   55  A    between atoms: _124  and  _125
REMARK   56  A    between atoms: _124  and  _127
REMARK   57  A    between atoms: _127  and  _128
REMARK   58  A    between atoms: _131  and  _133
REMARK   59  A    between atoms: _133  and  _134
REMARK   60  A    between atoms: _136  and  _138
REMARK   61  A    between atoms: _138  and  _139
REMARK   62  A    between atoms: _141  and  _143
REMARK   63  A    between atoms: _143  and  _144
REMARK   64  A    between atoms: _143  and  _146
REMARK   65  A    between atoms: _146  and  _147
REMARK   66  A    between atoms: _150  and  _152
REMARK   67  A    between atoms: _152  and  _153
REMARK   68  A    between atoms: _155  and  _157
REMARK   69  A    between atoms: _157  and  _158
REMARK   70  A    between atoms: _160  and  _162
REMARK   71  A    between atoms: _162  and  _163
REMARK   72  A    between atoms: _162  and  _165
REMARK   73  A    between atoms: _165  and  _166
REMARK   74  A    between atoms: _172  and  _174
REMARK   75  A    between atoms: _174  and  _175
REMARK   76  A    between atoms: _174  and  _177
REMARK   77  A    between atoms: _177  and  _178
REMARK   78  A    between atoms: _181  and  _183
REMARK   79  A    between atoms: _183  and  _184
REMARK   80  A    between atoms: _183  and  _186
REMARK   81  A    between atoms: _186  and  _187
REMARK   82  A    between atoms: _190  and  _192
REMARK   83  A    between atoms: _192  and  _193
REMARK   84  A    between atoms: _192  and  _195
REMARK   85  A    between atoms: _195  and  _196
REMARK   86  A    between atoms: _200  and  _201
REMARK   87  A    between atoms: _206  and  _208
REMARK   88  A    between atoms: _208  and  _209
REMARK   89  A    between atoms: _212  and  _214
REMARK   90  A    between atoms: _214  and  _215
REMARK   91  A    between atoms: _214  and  _217
REMARK   92  A    between atoms: _217  and  _218
REMARK   93  A    between atoms: _223  and  _225
REMARK   94  A    between atoms: _225  and  _226
REMARK   95  A    between atoms: _225  and  _228
REMARK   96  A    between atoms: _228  and  _229
REMARK   97  A    between atoms: _232  and  _234
REMARK   98  A    between atoms: _234  and  _235
REMARK   99  A    between atoms: _234  and  _237
REMARK  100  A    between atoms: _237  and  _238
REMARK  101  A    between atoms: _241  and  _243
REMARK  102  A    between atoms: _243  and  _244
REMARK  103  A    between atoms: _246  and  _248
REMARK  104  A    between atoms: _248  and  _249
REMARK  105  A    between atoms: _248  and  _251
REMARK  106  A    between atoms: _251  and  _252
REMARK  107  A    between atoms: _252  and  _253
REMARK  108  A    between atoms: _253  and  _254
REMARK  109  A    between atoms: _263  and  _265
REMARK  110  A    between atoms: _265  and  _266
REMARK  111  A    between atoms: _265  and  _268
REMARK  112  A    between atoms: _268  and  _269
REMARK  113  A    between atoms: _274  and  _276
REMARK  114  A    between atoms: _276  and  _277
REMARK  115  A    between atoms: _276  and  _279
REMARK  116  A    between atoms: _279  and  _280
REMARK  117  A    between atoms: _280  and  _281
REMARK  118  A    between atoms: _281  and  _282
REMARK  119  A    between atoms: _291  and  _293
REMARK  120  A    between atoms: _293  and  _294
REMARK  121  A    between atoms: _293  and  _296
REMARK  122  A    between atoms: _296  and  _297
REMARK  123  A    between atoms: _300  and  _302
REMARK  124  A    between atoms: _302  and  _303
REMARK  125  A    between atoms: _302  and  _305
REMARK  126  A    between atoms: _305  and  _306
REMARK  127  A    between atoms: _309  and  _311
REMARK  128  A    between atoms: _311  and  _312
REMARK  129  A    between atoms: _311  and  _314
REMARK  130  A    between atoms: _314  and  _315
REMARK  131  A    between atoms: _318  and  _320
REMARK  132  A    between atoms: _320  and  _321
REMARK  133  A    between atoms: _320  and  _323
REMARK  134  A    between atoms: _323  and  _324
REMARK  135  A    between atoms: _327  and  _329
REMARK  136  A    between atoms: _329  and  _330
REMARK  137  A    between atoms: _332  and  _334
REMARK  138  A    between atoms: _334  and  _335
REMARK  139  A    between atoms: _338  and  _340
REMARK  140  A    between atoms: _340  and  _341
REMARK  141  A    between atoms: _340  and  _343
REMARK  142  A    between atoms: _343  and  _344
REMARK  143  A    between atoms: _347  and  _349
REMARK  144  A    between atoms: _349  and  _350
REMARK  145  A    between atoms: _349  and  _352
REMARK  146  A    between atoms: _352  and  _353
REMARK  147  A    between atoms: _356  and  _358
REMARK  148  A    between atoms: _358  and  _359
REMARK  149  A    between atoms: _358  and  _361
REMARK  150  A    between atoms: _361  and  _362
REMARK  151  A    between atoms: _365  and  _367
REMARK  152  A    between atoms: _367  and  _368
REMARK  153  A    between atoms: _367  and  _370
REMARK  154  A    between atoms: _373  and  _375
REMARK  155  A    between atoms: _375  and  _376
REMARK  156  A    between atoms: _375  and  _378
REMARK  157  A    between atoms: _378  and  _379
REMARK  158  A    between atoms: _382  and  _384
REMARK  159  A    between atoms: _384  and  _385
REMARK  160  A    between atoms: _387  and  _389
REMARK  161  A    between atoms: _389  and  _390
REMARK  162  A    between atoms: _392  and  _394
REMARK  163  A    between atoms: _394  and  _395
REMARK  164  A    between atoms: _394  and  _397
REMARK  165  A    between atoms: _397  and  _398
REMARK  166  A    between atoms: _401  and  _403
REMARK  167  A    between atoms: _403  and  _404
REMARK  168  A    between atoms: _406  and  _408
REMARK  169  A    between atoms: _408  and  _409
REMARK  170  A    between atoms: _411  and  _413
REMARK  171  A    between atoms: _413  and  _414
REMARK  172  A    between atoms: _413  and  _416
REMARK  173  A    between atoms: _416  and  _417
REMARK  174  A    between atoms: _420  and  _422
REMARK  175  A    between atoms: _422  and  _423
REMARK  176  A    between atoms: _422  and  _425
REMARK  177  A    between atoms: _425  and  _426
REMARK  178  A    between atoms: _430  and  _431
REMARK  179  A    between atoms: _436  and  _438
REMARK  180  A    between atoms: _438  and  _439
REMARK  181  A    between atoms: _442  and  _444
REMARK  182  A    between atoms: _444  and  _445
REMARK  183  A    between atoms: _444  and  _447
REMARK  184  A    between atoms: _447  and  _448
REMARK  185  A    between atoms: _453  and  _455
REMARK  186  A    between atoms: _455  and  _456
REMARK  187  A    between atoms: _455  and  _458
REMARK  188  A    between atoms: _458  and  _459
REMARK  189  A    between atoms: _462  and  _464
REMARK  190  A    between atoms: _464  and  _465
REMARK  191  A    between atoms: _464  and  _467
REMARK  192  A    between atoms: _467  and  _468
REMARK  193  A    between atoms: _471  and  _473
REMARK  194  A    between atoms: _473  and  _474
REMARK  195  A    between atoms: _476  and  _478
REMARK  196  A    between atoms: _478  and  _479
REMARK  197  A    between atoms: _478  and  _481
REMARK  198  A    between atoms: _481  and  _482
REMARK  199  A    between atoms: _482  and  _483
REMARK  200  A    between atoms: _483  and  _484
REMARK  201  A    between atoms: _493  and  _495
REMARK  202  A    between atoms: _495  and  _496
REMARK  203  A    between atoms: _495  and  _498
REMARK  204  A    between atoms: _498  and  _499
REMARK                            x       y       z     vdW  Elec       q    Type
REMARK                         _______ _______ _______ _____ _____    ______ ____
ROOT
ATOM      1  O   HOH     1      20.914  34.421  21.871  0.00  0.00    +0.000 OA
ENDROOT
TORSDOF 0
REMARK  Name = ../refined-set-2016/2qd7/2qd7_pocket.pdb
REMARK  204 active torsions:
REMARK  status: ('A' for Active; 'I' for Inactive)
REMARK    1  A    between atoms: _1  and  _3
REMARK    2  A    between atoms: _3  and  _4
REMARK    3  A    between atoms: _3  and  _6
REMARK    4  A    between atoms: _6  and  _7
REMARK    5  A    between atoms: _7  and  _8
REMARK    6  A    between atoms: _8  and  _9
REMARK    7  A    between atoms: _18  and  _20
REMARK    8  A    between atoms: _20  and  _21
REMARK    9  A    between atoms: _20  and  _23
REMARK   10  A    between atoms: _23  and  _24
REMARK   11  A    between atoms: _27  and  _29
REMARK   12  A    between atoms: _29  and  _30
REMARK   13  A    between atoms: _29  and  _32
REMARK   14  A    between atoms: _32  and  _33
REMARK   15  A    between atoms: _36  and  _38
REMARK   16  A    between atoms: _38  and  _39
REMARK   17  A    between atoms: _38  and  _41
REMARK   18  A    between atoms: _41  and  _42
REMARK   19  A    between atoms: _45  and  _47
REMARK   20  A    between atoms: _47  and  _48
REMARK   21  A    between atoms: _47  and  _50
REMARK   22  A    between atoms: _50  and  _51
REMARK   23  A    between atoms: _54  and  _56
REMARK   24  A    between atoms: _56  and  _57
REMARK   25  A    between atoms: _59  and  _61
REMARK   26  A    between atoms: _61  and  _62
REMARK   27  A    between atoms: _65  and  _67
REMARK   28  A    between atoms: _67  and  _68
REMARK   29  A    between atoms: _67  and  _70
REMARK   30  A    between atoms: _70  and  _71
REMARK   31  A    between atoms: _74  and  _76
REMARK   32  A    between atoms: _76  and  _77
REMARK   33  A    between atoms: _76  and  _79
REMARK   34  A    between atoms: _79  and  _80
REMARK   35  A    between atoms: _83  and  _85
REMARK   36  A    between atoms: _85  and  _86
REMARK   37  A    between atoms: _85  and  _88
REMARK   38  A    between atoms: _88  and  _89
REMARK   39  A    between atoms: _92  and  _94
REMARK   40  A    between atoms: _94  and  _95
REMARK   41  A    between atoms: _94  and  _97
REMARK   42  A    between atoms: _100  and  _102
REMARK   43  A    between atoms: _102  and  _103
REMARK   44  A    between atoms: _102  and  _105
REMARK   45  A    between atoms: _105  and  _106
REMARK   46  A    between atoms: _106  and  _107
REMARK   47  A    between atoms: _107  and  _108
REMARK   48  A    between atoms: _108  and  _109
REMARK   49  A    between atoms: _113  and  _115
REMARK   50  A    between atoms: _115  and  _116
REMARK   51  A    between atoms: _115  and  _118
REMARK   52  A    between atoms: _118  and  _119
REMARK   53  A    between atoms: _119  and  _120
REMARK   54  A    between atoms: _122  and  _124
REMARK   55  A    between atoms: _124  and  _125
REMARK   56  A    between atoms: _124  and  _127
REMARK   57  A    between atoms: _127  and  _128
REMARK   58  A    between atoms: _131  and  _133
REMARK   59  A    between atoms: _133  and  _134
REMARK   60  A    between atoms: _136  and  _138
REMARK   61  A    between atoms: _138  and  _139
REMARK   62  A    between atoms: _141  and  _143
REMARK   63  A    between atoms: _143  and  _144
REMARK   64  A    between atoms: _143  and  _146
REMARK   65  A    between atoms: _146  and  _147
REMARK   66  A    between atoms: _150  and  _152
REMARK   67  A    between atoms: _152  and  _153
REMARK   68  A    between atoms: _155  and  _157
REMARK   69  A    between atoms: _157  and  _158
REMARK   70  A    between atoms: _160  and  _162
REMARK   71  A    between atoms: _162  and  _163
REMARK   72  A    between atoms: _162  and  _165
REMARK   73  A    between atoms: _165  and  _166
REMARK   74  A    between atoms: _172  and  _174
REMARK   75  A    between atoms: _174  and  _175
REMARK   76  A    between atoms: _174  and  _177
REMARK   77  A    between atoms: _177  and  _178
REMARK   78  A    between atoms: _181  and  _183
REMARK   79  A    between atoms: _183  and  _184
REMARK   80  A    between atoms: _183  and  _186
REMARK   81  A    between atoms: _186  and  _187
REMARK   82  A    between atoms: _190  and  _192
REMARK   83  A    between atoms: _192  and  _193
REMARK   84  A    between atoms: _192  and  _195
REMARK   85  A    between atoms: _195  and  _196
REMARK   86  A    between atoms: _200  and  _201
REMARK   87  A    between atoms: _206  and  _208
REMARK   88  A    between atoms: _208  and  _209
REMARK   89  A    between atoms: _212  and  _214
REMARK   90  A    between atoms: _214  and  _215
REMARK   91  A    between atoms: _214  and  _217
REMARK   92  A    between atoms: _217  and  _218
REMARK   93  A    between atoms: _223  and  _225
REMARK   94  A    between atoms: _225  and  _226
REMARK   95  A    between atoms: _225  and  _228
REMARK   96  A    between atoms: _228  and  _229
REMARK   97  A    between atoms: _232  and  _234
REMARK   98  A    between atoms: _234  and  _235
REMARK   99  A    between atoms: _234  and  _237
REMARK  100  A    between atoms: _237  and  _238
REMARK  101  A    between atoms: _241  and  _243
REMARK  102  A    between atoms: _243  and  _244
REMARK  103  A    between atoms: _246  and  _248
REMARK  104  A    between atoms: _248  and  _249
REMARK  105  A    between atoms: _248  and  _251
REMARK  106  A    between atoms: _251  and  _252
REMARK  107  A    between atoms: _252  and  _253
REMARK  108  A    between atoms: _253  and  _254
REMARK  109  A    between atoms: _263  and  _265
REMARK  110  A    between atoms: _265  and  _266
REMARK  111  A    between atoms: _265  and  _268
REMARK  112  A    between atoms: _268  and  _269
REMARK  113  A    between atoms: _274  and  _276
REMARK  114  A    between atoms: _276  and  _277
REMARK  115  A    between atoms: _276  and  _279
REMARK  116  A    between atoms: _279  and  _280
REMARK  117  A    between atoms: _280  and  _281
REMARK  118  A    between atoms: _281  and  _282
REMARK  119  A    between atoms: _291  and  _293
REMARK  120  A    between atoms: _293  and  _294
REMARK  121  A    between atoms: _293  and  _296
REMARK  122  A    between atoms: _296  and  _297
REMARK  123  A    between atoms: _300  and  _302
REMARK  124  A    between atoms: _302  and  _303
REMARK  125  A    between atoms: _302  and  _305
REMARK  126  A    between atoms: _305  and  _306
REMARK  127  A    between atoms: _309  and  _311
REMARK  128  A    between atoms: _311  and  _312
REMARK  129  A    between atoms: _311  and  _314
REMARK  130  A    between atoms: _314  and  _315
REMARK  131  A    between atoms: _318  and  _320
REMARK  132  A    between atoms: _320  and  _321
REMARK  133  A    between atoms: _320  and  _323
REMARK  134  A    between atoms: _323  and  _324
REMARK  135  A    between atoms: _327  and  _329
REMARK  136  A    between atoms: _329  and  _330
REMARK  137  A    between atoms: _332  and  _334
REMARK  138  A    between atoms: _334  and  _335
REMARK  139  A    between atoms: _338  and  _340
REMARK  140  A    between atoms: _340  and  _341
REMARK  141  A    between atoms: _340  and  _343
REMARK  142  A    between atoms: _343  and  _344
REMARK  143  A    between atoms: _347  and  _349
REMARK  144  A    between atoms: _349  and  _350
REMARK  145  A    between atoms: _349  and  _352
REMARK  146  A    between atoms: _352  and  _353
REMARK  147  A    between atoms: _356  and  _358
REMARK  148  A    between atoms: _358  and  _359
REMARK  149  A    between atoms: _358  and  _361
REMARK  150  A    between atoms: _361  and  _362
REMARK  151  A    between atoms: _365  and  _367
REMARK  152  A    between atoms: _367  and  _368
REMARK  153  A    between atoms: _367  and  _370
REMARK  154  A    between atoms: _373  and  _375
REMARK  155  A    between atoms: _375  and  _376
REMARK  156  A    between atoms: _375  and  _378
REMARK  157  A    between atoms: _378  and  _379
REMARK  158  A    between atoms: _382  and  _384
REMARK  159  A    between atoms: _384  and  _385
REMARK  160  A    between atoms: _387  and  _389
REMARK  161  A    between atoms: _389  and  _390
REMARK  162  A    between atoms: _392  and  _394
REMARK  163  A    between atoms: _394  and  _395
REMARK  164  A    between atoms: _394  and  _397
REMARK  165  A    between atoms: _397  and  _398
REMARK  166  A    between atoms: _401  and  _403
REMARK  167  A    between atoms: _403  and  _404
REMARK  168  A    between atoms: _406  and  _408
REMARK  169  A    between atoms: _408  and  _409
REMARK  170  A    between atoms: _411  and  _413
REMARK  171  A    between atoms: _413  and  _414
REMARK  172  A    between atoms: _413  and  _416
REMARK  173  A    between atoms: _416  and  _417
REMARK  174  A    between atoms: _420  and  _422
REMARK  175  A    between atoms: _422  and  _423
REMARK  176  A    between atoms: _422  and  _425
REMARK  177  A    between atoms: _425  and  _426
REMARK  178  A    between atoms: _430  and  _431
REMARK  179  A    between atoms: _436  and  _438
REMARK  180  A    between atoms: _438  and  _439
REMARK  181  A    between atoms: _442  and  _444
REMARK  182  A    between atoms: _444  and  _445
REMARK  183  A    between atoms: _444  and  _447
REMARK  184  A    between atoms: _447  and  _448
REMARK  185  A    between atoms: _453  and  _455
REMARK  186  A    between atoms: _455  and  _456
REMARK  187  A    between atoms: _455  and  _458
REMARK  188  A    between atoms: _458  and  _459
REMARK  189  A    between atoms: _462  and  _464
REMARK  190  A    between atoms: _464  and  _465
REMARK  191  A    between atoms: _464  and  _467
REMARK  192  A    between atoms: _467  and  _468
REMARK  193  A    between atoms: _471  and  _473
REMARK  194  A    between atoms: _473  and  _474
REMARK  195  A    between atoms: _476  and  _478
REMARK  196  A    between atoms: _478  and  _479
REMARK  197  A    between atoms: _478  and  _481
REMARK  198  A    between atoms: _481  and  _482
REMARK  199  A    between atoms: _482  and  _483
REMARK  200  A    between atoms: _483  and  _484
REMARK  201  A    between atoms: _493  and  _495
REMARK  202  A    between atoms: _495  and  _496
REMARK  203  A    between atoms: _495  and  _498
REMARK  204  A    between atoms: _498  and  _499
REMARK                            x       y       z     vdW  Elec       q    Type
REMARK                         _______ _______ _______ _____ _____    ______ ____
ROOT
ATOM      1  O   HOH     1       9.456  35.171  21.546  0.00  0.00    +0.000 OA
ENDROOT
TORSDOF 0
REMARK  Name = ../refined-set-2016/2qd7/2qd7_pocket.pdb
REMARK  204 active torsions:
REMARK  status: ('A' for Active; 'I' for Inactive)
REMARK    1  A    between atoms: _1  and  _3
REMARK    2  A    between atoms: _3  and  _4
REMARK    3  A    between atoms: _3  and  _6
REMARK    4  A    between atoms: _6  and  _7
REMARK    5  A    between atoms: _7  and  _8
REMARK    6  A    between atoms: _8  and  _9
REMARK    7  A    between atoms: _18  and  _20
REMARK    8  A    between atoms: _20  and  _21
REMARK    9  A    between atoms: _20  and  _23
REMARK   10  A    between atoms: _23  and  _24
REMARK   11  A    between atoms: _27  and  _29
REMARK   12  A    between atoms: _29  and  _30
REMARK   13  A    between atoms: _29  and  _32
REMARK   14  A    between atoms: _32  and  _33
REMARK   15  A    between atoms: _36  and  _38
REMARK   16  A    between atoms: _38  and  _39
REMARK   17  A    between atoms: _38  and  _41
REMARK   18  A    between atoms: _41  and  _42
REMARK   19  A    between atoms: _45  and  _47
REMARK   20  A    between atoms: _47  and  _48
REMARK   21  A    between atoms: _47  and  _50
REMARK   22  A    between atoms: _50  and  _51
REMARK   23  A    between atoms: _54  and  _56
REMARK   24  A    between atoms: _56  and  _57
REMARK   25  A    between atoms: _59  and  _61
REMARK   26  A    between atoms: _61  and  _62
REMARK   27  A    between atoms: _65  and  _67
REMARK   28  A    between atoms: _67  and  _68
REMARK   29  A    between atoms: _67  and  _70
REMARK   30  A    between atoms: _70  and  _71
REMARK   31  A    between atoms: _74  and  _76
REMARK   32  A    between atoms: _76  and  _77
REMARK   33  A    between atoms: _76  and  _79
REMARK   34  A    between atoms: _79  and  _80
REMARK   35  A    between atoms: _83  and  _85
REMARK   36  A    between atoms: _85  and  _86
REMARK   37  A    between atoms: _85  and  _88
REMARK   38  A    between atoms: _88  and  _89
REMARK   39  A    between atoms: _92  and  _94
REMARK   40  A    between atoms: _94  and  _95
REMARK   41  A    between atoms: _94  and  _97
REMARK   42  A    between atoms: _100  and  _102
REMARK   43  A    between atoms: _102  and  _103
REMARK   44  A    between atoms: _102  and  _105
REMARK   45  A    between atoms: _105  and  _106
REMARK   46  A    between atoms: _106  and  _107
REMARK   47  A    between atoms: _107  and  _108
REMARK   48  A    between atoms: _108  and  _109
REMARK   49  A    between atoms: _113  and  _115
REMARK   50  A    between atoms: _115  and  _116
REMARK   51  A    between atoms: _115  and  _118
REMARK   52  A    between atoms: _118  and  _119
REMARK   53  A    between atoms: _119  and  _120
REMARK   54  A    between atoms: _122  and  _124
REMARK   55  A    between atoms: _124  and  _125
REMARK   56  A    between atoms: _124  and  _127
REMARK   57  A    between atoms: _127  and  _128
REMARK   58  A    between atoms: _131  and  _133
REMARK   59  A    between atoms: _133  and  _134
REMARK   60  A    between atoms: _136  and  _138
REMARK   61  A    between atoms: _138  and  _139
REMARK   62  A    between atoms: _141  and  _143
REMARK   63  A    between atoms: _143  and  _144
REMARK   64  A    between atoms: _143  and  _146
REMARK   65  A    between atoms: _146  and  _147
REMARK   66  A    between atoms: _150  and  _152
REMARK   67  A    between atoms: _152  and  _153
REMARK   68  A    between atoms: _155  and  _157
REMARK   69  A    between atoms: _157  and  _158
REMARK   70  A    between atoms: _160  and  _162
REMARK   71  A    between atoms: _162  and  _163
REMARK   72  A    between atoms: _162  and  _165
REMARK   73  A    between atoms: _165  and  _166
REMARK   74  A    between atoms: _172  and  _174
REMARK   75  A    between atoms: _174  and  _175
REMARK   76  A    between atoms: _174  and  _177
REMARK   77  A    between atoms: _177  and  _178
REMARK   78  A    between atoms: _181  and  _183
REMARK   79  A    between atoms: _183  and  _184
REMARK   80  A    between atoms: _183  and  _186
REMARK   81  A    between atoms: _186  and  _187
REMARK   82  A    between atoms: _190  and  _192
REMARK   83  A    between atoms: _192  and  _193
REMARK   84  A    between atoms: _192  and  _195
REMARK   85  A    between atoms: _195  and  _196
REMARK   86  A    between atoms: _200  and  _201
REMARK   87  A    between atoms: _206  and  _208
REMARK   88  A    between atoms: _208  and  _209
REMARK   89  A    between atoms: _212  and  _214
REMARK   90  A    between atoms: _214  and  _215
REMARK   91  A    between atoms: _214  and  _217
REMARK   92  A    between atoms: _217  and  _218
REMARK   93  A    between atoms: _223  and  _225
REMARK   94  A    between atoms: _225  and  _226
REMARK   95  A    between atoms: _225  and  _228
REMARK   96  A    between atoms: _228  and  _229
REMARK   97  A    between atoms: _232  and  _234
REMARK   98  A    between atoms: _234  and  _235
REMARK   99  A    between atoms: _234  and  _237
REMARK  100  A    between atoms: _237  and  _238
REMARK  101  A    between atoms: _241  and  _243
REMARK  102  A    between atoms: _243  and  _244
REMARK  103  A    between atoms: _246  and  _248
REMARK  104  A    between atoms: _248  and  _249
REMARK  105  A    between atoms: _248  and  _251
REMARK  106  A    between atoms: _251  and  _252
REMARK  107  A    between atoms: _252  and  _253
REMARK  108  A    between atoms: _253  and  _254
REMARK  109  A    between atoms: _263  and  _265
REMARK  110  A    between atoms: _265  and  _266
REMARK  111  A    between atoms: _265  and  _268
REMARK  112  A    between atoms: _268  and  _269
REMARK  113  A    between atoms: _274  and  _276
REMARK  114  A    between atoms: _276  and  _277
REMARK  115  A    between atoms: _276  and  _279
REMARK  116  A    between atoms: _279  and  _280
REMARK  117  A    between atoms: _280  and  _281
REMARK  118  A    between atoms: _281  and  _282
REMARK  119  A    between atoms: _291  and  _293
REMARK  120  A    between atoms: _293  and  _294
REMARK  121  A    between atoms: _293  and  _296
REMARK  122  A    between atoms: _296  and  _297
REMARK  123  A    between atoms: _300  and  _302
REMARK  124  A    between atoms: _302  and  _303
REMARK  125  A    between atoms: _302  and  _305
REMARK  126  A    between atoms: _305  and  _306
REMARK  127  A    between atoms: _309  and  _311
REMARK  128  A    between atoms: _311  and  _312
REMARK  129  A    between atoms: _311  and  _314
REMARK  130  A    between atoms: _314  and  _315
REMARK  131  A    between atoms: _318  and  _320
REMARK  132  A    between atoms: _320  and  _321
REMARK  133  A    between atoms: _320  and  _323
REMARK  134  A    between atoms: _323  and  _324
REMARK  135  A    between atoms: _327  and  _329
REMARK  136  A    between atoms: _329  and  _330
REMARK  137  A    between atoms: _332  and  _334
REMARK  138  A    between atoms: _334  and  _335
REMARK  139  A    between atoms: _338  and  _340
REMARK  140  A    between atoms: _340  and  _341
REMARK  141  A    between atoms: _340  and  _343
REMARK  142  A    between atoms: _343  and  _344
REMARK  143  A    between atoms: _347  and  _349
REMARK  144  A    between atoms: _349  and  _350
REMARK  145  A    between atoms: _349  and  _352
REMARK  146  A    between atoms: _352  and  _353
REMARK  147  A    between atoms: _356  and  _358
REMARK  148  A    between atoms: _358  and  _359
REMARK  149  A    between atoms: _358  and  _361
REMARK  150  A    between atoms: _361  and  _362
REMARK  151  A    between atoms: _365  and  _367
REMARK  152  A    between atoms: _367  and  _368
REMARK  153  A    between atoms: _367  and  _370
REMARK  154  A    between atoms: _373  and  _375
REMARK  155  A    between atoms: _375  and  _376
REMARK  156  A    between atoms: _375  and  _378
REMARK  157  A    between atoms: _378  and  _379
REMARK  158  A    between atoms: _382  and  _384
REMARK  159  A    between atoms: _384  and  _385
REMARK  160  A    between atoms: _387  and  _389
REMARK  161  A    between atoms: _389  and  _390
REMARK  162  A    between atoms: _392  and  _394
REMARK  163  A    between atoms: _394  and  _395
REMARK  164  A    between atoms: _394  and  _397
REMARK  165  A    between atoms: _397  and  _398
REMARK  166  A    between atoms: _401  and  _403
REMARK  167  A    between atoms: _403  and  _404
REMARK  168  A    between atoms: _406  and  _408
REMARK  169  A    between atoms: _408  and  _409
REMARK  170  A    between atoms: _411  and  _413
REMARK  171  A    between atoms: _413  and  _414
REMARK  172  A    between atoms: _413  and  _416
REMARK  173  A    between atoms: _416  and  _417
REMARK  174  A    between atoms: _420  and  _422
REMARK  175  A    between atoms: _422  and  _423
REMARK  176  A    between atoms: _422  and  _425
REMARK  177  A    between atoms: _425  and  _426
REMARK  178  A    between atoms: _430  and  _431
REMARK  179  A    between atoms: _436  and  _438
REMARK  180  A    between atoms: _438  and  _439
REMARK  181  A    between atoms: _442  and  _444
REMARK  182  A    between atoms: _444  and  _445
REMARK  183  A    between atoms: _444  and  _447
REMARK  184  A    between atoms: _447  and  _448
REMARK  185  A    between atoms: _453  and  _455
REMARK  186  A    between atoms: _455  and  _456
REMARK  187  A    between atoms: _455  and  _458
REMARK  188  A    between atoms: _458  and  _459
REMARK  189  A    between atoms: _462  and  _464
REMARK  190  A    between atoms: _464  and  _465
REMARK  191  A    between atoms: _464  and  _467
REMARK  192  A    between atoms: _467  and  _468
REMARK  193  A    between atoms: _471  and  _473
REMARK  194  A    between atoms: _473  and  _474
REMARK  195  A    between atoms: _476  and  _478
REMARK  196  A    between atoms: _478  and  _479
REMARK  197  A    between atoms: _478  and  _481
REMARK  198  A    between atoms: _481  and  _482
REMARK  199  A    between atoms: _482  and  _483
REMARK  200  A    between atoms: _483  and  _484
REMARK  201  A    between atoms: _493  and  _495
REMARK  202  A    between atoms: _495  and  _496
REMARK  203  A    between atoms: _495  and  _498
REMARK  204  A    between atoms: _498  and  _499
REMARK                            x       y       z     vdW  Elec       q    Type
REMARK                         _______ _______ _______ _____ _____    ______ ____
ROOT
ATOM      1  O   HOH     1      17.673  40.059  16.181  0.00  0.00    +0.000 OA
ENDROOT
TORSDOF 0
REMARK  Name = ../refined-set-2016/2qd7/2qd7_pocket.pdb
REMARK  204 active torsions:
REMARK  status: ('A' for Active; 'I' for Inactive)
REMARK    1  A    between atoms: _1  and  _3
REMARK    2  A    between atoms: _3  and  _4
REMARK    3  A    between atoms: _3  and  _6
REMARK    4  A    between atoms: _6  and  _7
REMARK    5  A    between atoms: _7  and  _8
REMARK    6  A    between atoms: _8  and  _9
REMARK    7  A    between atoms: _18  and  _20
REMARK    8  A    between atoms: _20  and  _21
REMARK    9  A    between atoms: _20  and  _23
REMARK   10  A    between atoms: _23  and  _24
REMARK   11  A    between atoms: _27  and  _29
REMARK   12  A    between atoms: _29  and  _30
REMARK   13  A    between atoms: _29  and  _32
REMARK   14  A    between atoms: _32  and  _33
REMARK   15  A    between atoms: _36  and  _38
REMARK   16  A    between atoms: _38  and  _39
REMARK   17  A    between atoms: _38  and  _41
REMARK   18  A    between atoms: _41  and  _42
REMARK   19  A    between atoms: _45  and  _47
REMARK   20  A    between atoms: _47  and  _48
REMARK   21  A    between atoms: _47  and  _50
REMARK   22  A    between atoms: _50  and  _51
REMARK   23  A    between atoms: _54  and  _56
REMARK   24  A    between atoms: _56  and  _57
REMARK   25  A    between atoms: _59  and  _61
REMARK   26  A    between atoms: _61  and  _62
REMARK   27  A    between atoms: _65  and  _67
REMARK   28  A    between atoms: _67  and  _68
REMARK   29  A    between atoms: _67  and  _70
REMARK   30  A    between atoms: _70  and  _71
REMARK   31  A    between atoms: _74  and  _76
REMARK   32  A    between atoms: _76  and  _77
REMARK   33  A    between atoms: _76  and  _79
REMARK   34  A    between atoms: _79  and  _80
REMARK   35  A    between atoms: _83  and  _85
REMARK   36  A    between atoms: _85  and  _86
REMARK   37  A    between atoms: _85  and  _88
REMARK   38  A    between atoms: _88  and  _89
REMARK   39  A    between atoms: _92  and  _94
REMARK   40  A    between atoms: _94  and  _95
REMARK   41  A    between atoms: _94  and  _97
REMARK   42  A    between atoms: _100  and  _102
REMARK   43  A    between atoms: _102  and  _103
REMARK   44  A    between atoms: _102  and  _105
REMARK   45  A    between atoms: _105  and  _106
REMARK   46  A    between atoms: _106  and  _107
REMARK   47  A    between atoms: _107  and  _108
REMARK   48  A    between atoms: _108  and  _109
REMARK   49  A    between atoms: _113  and  _115
REMARK   50  A    between atoms: _115  and  _116
REMARK   51  A    between atoms: _115  and  _118
REMARK   52  A    between atoms: _118  and  _119
REMARK   53  A    between atoms: _119  and  _120
REMARK   54  A    between atoms: _122  and  _124
REMARK   55  A    between atoms: _124  and  _125
REMARK   56  A    between atoms: _124  and  _127
REMARK   57  A    between atoms: _127  and  _128
REMARK   58  A    between atoms: _131  and  _133
REMARK   59  A    between atoms: _133  and  _134
REMARK   60  A    between atoms: _136  and  _138
REMARK   61  A    between atoms: _138  and  _139
REMARK   62  A    between atoms: _141  and  _143
REMARK   63  A    between atoms: _143  and  _144
REMARK   64  A    between atoms: _143  and  _146
REMARK   65  A    between atoms: _146  and  _147
REMARK   66  A    between atoms: _150  and  _152
REMARK   67  A    between atoms: _152  and  _153
REMARK   68  A    between atoms: _155  and  _157
REMARK   69  A    between atoms: _157  and  _158
REMARK   70  A    between atoms: _160  and  _162
REMARK   71  A    between atoms: _162  and  _163
REMARK   72  A    between atoms: _162  and  _165
REMARK   73  A    between atoms: _165  and  _166
REMARK   74  A    between atoms: _172  and  _174
REMARK   75  A    between atoms: _174  and  _175
REMARK   76  A    between atoms: _174  and  _177
REMARK   77  A    between atoms: _177  and  _178
REMARK   78  A    between atoms: _181  and  _183
REMARK   79  A    between atoms: _183  and  _184
REMARK   80  A    between atoms: _183  and  _186
REMARK   81  A    between atoms: _186  and  _187
REMARK   82  A    between atoms: _190  and  _192
REMARK   83  A    between atoms: _192  and  _193
REMARK   84  A    between atoms: _192  and  _195
REMARK   85  A    between atoms: _195  and  _196
REMARK   86  A    between atoms: _200  and  _201
REMARK   87  A    between atoms: _206  and  _208
REMARK   88  A    between atoms: _208  and  _209
REMARK   89  A    between atoms: _212  and  _214
REMARK   90  A    between atoms: _214  and  _215
REMARK   91  A    between atoms: _214  and  _217
REMARK   92  A    between atoms: _217  and  _218
REMARK   93  A    between atoms: _223  and  _225
REMARK   94  A    between atoms: _225  and  _226
REMARK   95  A    between atoms: _225  and  _228
REMARK   96  A    between atoms: _228  and  _229
REMARK   97  A    between atoms: _232  and  _234
REMARK   98  A    between atoms: _234  and  _235
REMARK   99  A    between atoms: _234  and  _237
REMARK  100  A    between atoms: _237  and  _238
REMARK  101  A    between atoms: _241  and  _243
REMARK  102  A    between atoms: _243  and  _244
REMARK  103  A    between atoms: _246  and  _248
REMARK  104  A    between atoms: _248  and  _249
REMARK  105  A    between atoms: _248  and  _251
REMARK  106  A    between atoms: _251  and  _252
REMARK  107  A    between atoms: _252  and  _253
REMARK  108  A    between atoms: _253  and  _254
REMARK  109  A    between atoms: _263  and  _265
REMARK  110  A    between atoms: _265  and  _266
REMARK  111  A    between atoms: _265  and  _268
REMARK  112  A    between atoms: _268  and  _269
REMARK  113  A    between atoms: _274  and  _276
REMARK  114  A    between atoms: _276  and  _277
REMARK  115  A    between atoms: _276  and  _279
REMARK  116  A    between atoms: _279  and  _280
REMARK  117  A    between atoms: _280  and  _281
REMARK  118  A    between atoms: _281  and  _282
REMARK  119  A    between atoms: _291  and  _293
REMARK  120  A    between atoms: _293  and  _294
REMARK  121  A    between atoms: _293  and  _296
REMARK  122  A    between atoms: _296  and  _297
REMARK  123  A    between atoms: _300  and  _302
REMARK  124  A    between atoms: _302  and  _303
REMARK  125  A    between atoms: _302  and  _305
REMARK  126  A    between atoms: _305  and  _306
REMARK  127  A    between atoms: _309  and  _311
REMARK  128  A    between atoms: _311  and  _312
REMARK  129  A    between atoms: _311  and  _314
REMARK  130  A    between atoms: _314  and  _315
REMARK  131  A    between atoms: _318  and  _320
REMARK  132  A    between atoms: _320  and  _321
REMARK  133  A    between atoms: _320  and  _323
REMARK  134  A    between atoms: _323  and  _324
REMARK  135  A    between atoms: _327  and  _329
REMARK  136  A    between atoms: _329  and  _330
REMARK  137  A    between atoms: _332  and  _334
REMARK  138  A    between atoms: _334  and  _335
REMARK  139  A    between atoms: _338  and  _340
REMARK  140  A    between atoms: _340  and  _341
REMARK  141  A    between atoms: _340  and  _343
REMARK  142  A    between atoms: _343  and  _344
REMARK  143  A    between atoms: _347  and  _349
REMARK  144  A    between atoms: _349  and  _350
REMARK  145  A    between atoms: _349  and  _352
REMARK  146  A    between atoms: _352  and  _353
REMARK  147  A    between atoms: _356  and  _358
REMARK  148  A    between atoms: _358  and  _359
REMARK  149  A    between atoms: _358  and  _361
REMARK  150  A    between atoms: _361  and  _362
REMARK  151  A    between atoms: _365  and  _367
REMARK  152  A    between atoms: _367  and  _368
REMARK  153  A    between atoms: _367  and  _370
REMARK  154  A    between atoms: _373  and  _375
REMARK  155  A    between atoms: _375  and  _376
REMARK  156  A    between atoms: _375  and  _378
REMARK  157  A    between atoms: _378  and  _379
REMARK  158  A    between atoms: _382  and  _384
REMARK  159  A    between atoms: _384  and  _385
REMARK  160  A    between atoms: _387  and  _389
REMARK  161  A    between atoms: _389  and  _390
REMARK  162  A    between atoms: _392  and  _394
REMARK  163  A    between atoms: _394  and  _395
REMARK  164  A    between atoms: _394  and  _397
REMARK  165  A    between atoms: _397  and  _398
REMARK  166  A    between atoms: _401  and  _403
REMARK  167  A    between atoms: _403  and  _404
REMARK  168  A    between atoms: _406  and  _408
REMARK  169  A    between atoms: _408  and  _409
REMARK  170  A    between atoms: _411  and  _413
REMARK  171  A    between atoms: _413  and  _414
REMARK  172  A    between atoms: _413  and  _416
REMARK  173  A    between atoms: _416  and  _417
REMARK  174  A    between atoms: _420  and  _422
REMARK  175  A    between atoms: _422  and  _423
REMARK  176  A    between atoms: _422  and  _425
REMARK  177  A    between atoms: _425  and  _426
REMARK  178  A    between atoms: _430  and  _431
REMARK  179  A    between atoms: _436  and  _438
REMARK  180  A    between atoms: _438  and  _439
REMARK  181  A    between atoms: _442  and  _444
REMARK  182  A    between atoms: _444  and  _445
REMARK  183  A    between atoms: _444  and  _447
REMARK  184  A    between atoms: _447  and  _448
REMARK  185  A    between atoms: _453  and  _455
REMARK  186  A    between atoms: _455  and  _456
REMARK  187  A    between atoms: _455  and  _458
REMARK  188  A    between atoms: _458  and  _459
REMARK  189  A    between atoms: _462  and  _464
REMARK  190  A    between atoms: _464  and  _465
REMARK  191  A    between atoms: _464  and  _467
REMARK  192  A    between atoms: _467  and  _468
REMARK  193  A    between atoms: _471  and  _473
REMARK  194  A    between atoms: _473  and  _474
REMARK  195  A    between atoms: _476  and  _478
REMARK  196  A    between atoms: _478  and  _479
REMARK  197  A    between atoms: _478  and  _481
REMARK  198  A    between atoms: _481  and  _482
REMARK  199  A    between atoms: _482  and  _483
REMARK  200  A    between atoms: _483  and  _484
REMARK  201  A    between atoms: _493  and  _495
REMARK  202  A    between atoms: _495  and  _496
REMARK  203  A    between atoms: _495  and  _498
REMARK  204  A    between atoms: _498  and  _499
REMARK                            x       y       z     vdW  Elec       q    Type
REMARK                         _______ _______ _______ _____ _____    ______ ____
ROOT
ATOM      1  O   HOH     1      18.683  34.963  19.722  0.00  0.00    +0.000 OA
ENDROOT
TORSDOF 0
REMARK  Name = ../refined-set-2016/2qd7/2qd7_pocket.pdb
REMARK  204 active torsions:
REMARK  status: ('A' for Active; 'I' for Inactive)
REMARK    1  A    between atoms: _1  and  _3
REMARK    2  A    between atoms: _3  and  _4
REMARK    3  A    between atoms: _3  and  _6
REMARK    4  A    between atoms: _6  and  _7
REMARK    5  A    between atoms: _7  and  _8
REMARK    6  A    between atoms: _8  and  _9
REMARK    7  A    between atoms: _18  and  _20
REMARK    8  A    between atoms: _20  and  _21
REMARK    9  A    between atoms: _20  and  _23
REMARK   10  A    between atoms: _23  and  _24
REMARK   11  A    between atoms: _27  and  _29
REMARK   12  A    between atoms: _29  and  _30
REMARK   13  A    between atoms: _29  and  _32
REMARK   14  A    between atoms: _32  and  _33
REMARK   15  A    between atoms: _36  and  _38
REMARK   16  A    between atoms: _38  and  _39
REMARK   17  A    between atoms: _38  and  _41
REMARK   18  A    between atoms: _41  and  _42
REMARK   19  A    between atoms: _45  and  _47
REMARK   20  A    between atoms: _47  and  _48
REMARK   21  A    between atoms: _47  and  _50
REMARK   22  A    between atoms: _50  and  _51
REMARK   23  A    between atoms: _54  and  _56
REMARK   24  A    between atoms: _56  and  _57
REMARK   25  A    between atoms: _59  and  _61
REMARK   26  A    between atoms: _61  and  _62
REMARK   27  A    between atoms: _65  and  _67
REMARK   28  A    between atoms: _67  and  _68
REMARK   29  A    between atoms: _67  and  _70
REMARK   30  A    between atoms: _70  and  _71
REMARK   31  A    between atoms: _74  and  _76
REMARK   32  A    between atoms: _76  and  _77
REMARK   33  A    between atoms: _76  and  _79
REMARK   34  A    between atoms: _79  and  _80
REMARK   35  A    between atoms: _83  and  _85
REMARK   36  A    between atoms: _85  and  _86
REMARK   37  A    between atoms: _85  and  _88
REMARK   38  A    between atoms: _88  and  _89
REMARK   39  A    between atoms: _92  and  _94
REMARK   40  A    between atoms: _94  and  _95
REMARK   41  A    between atoms: _94  and  _97
REMARK   42  A    between atoms: _100  and  _102
REMARK   43  A    between atoms: _102  and  _103
REMARK   44  A    between atoms: _102  and  _105
REMARK   45  A    between atoms: _105  and  _106
REMARK   46  A    between atoms: _106  and  _107
REMARK   47  A    between atoms: _107  and  _108
REMARK   48  A    between atoms: _108  and  _109
REMARK   49  A    between atoms: _113  and  _115
REMARK   50  A    between atoms: _115  and  _116
REMARK   51  A    between atoms: _115  and  _118
REMARK   52  A    between atoms: _118  and  _119
REMARK   53  A    between atoms: _119  and  _120
REMARK   54  A    between atoms: _122  and  _124
REMARK   55  A    between atoms: _124  and  _125
REMARK   56  A    between atoms: _124  and  _127
REMARK   57  A    between atoms: _127  and  _128
REMARK   58  A    between atoms: _131  and  _133
REMARK   59  A    between atoms: _133  and  _134
REMARK   60  A    between atoms: _136  and  _138
REMARK   61  A    between atoms: _138  and  _139
REMARK   62  A    between atoms: _141  and  _143
REMARK   63  A    between atoms: _143  and  _144
REMARK   64  A    between atoms: _143  and  _146
REMARK   65  A    between atoms: _146  and  _147
REMARK   66  A    between atoms: _150  and  _152
REMARK   67  A    between atoms: _152  and  _153
REMARK   68  A    between atoms: _155  and  _157
REMARK   69  A    between atoms: _157  and  _158
REMARK   70  A    between atoms: _160  and  _162
REMARK   71  A    between atoms: _162  and  _163
REMARK   72  A    between atoms: _162  and  _165
REMARK   73  A    between atoms: _165  and  _166
REMARK   74  A    between atoms: _172  and  _174
REMARK   75  A    between atoms: _174  and  _175
REMARK   76  A    between atoms: _174  and  _177
REMARK   77  A    between atoms: _177  and  _178
REMARK   78  A    between atoms: _181  and  _183
REMARK   79  A    between atoms: _183  and  _184
REMARK   80  A    between atoms: _183  and  _186
REMARK   81  A    between atoms: _186  and  _187
REMARK   82  A    between atoms: _190  and  _192
REMARK   83  A    between atoms: _192  and  _193
REMARK   84  A    between atoms: _192  and  _195
REMARK   85  A    between atoms: _195  and  _196
REMARK   86  A    between atoms: _200  and  _201
REMARK   87  A    between atoms: _206  and  _208
REMARK   88  A    between atoms: _208  and  _209
REMARK   89  A    between atoms: _212  and  _214
REMARK   90  A    between atoms: _214  and  _215
REMARK   91  A    between atoms: _214  and  _217
REMARK   92  A    between atoms: _217  and  _218
REMARK   93  A    between atoms: _223  and  _225
REMARK   94  A    between atoms: _225  and  _226
REMARK   95  A    between atoms: _225  and  _228
REMARK   96  A    between atoms: _228  and  _229
REMARK   97  A    between atoms: _232  and  _234
REMARK   98  A    between atoms: _234  and  _235
REMARK   99  A    between atoms: _234  and  _237
REMARK  100  A    between atoms: _237  and  _238
REMARK  101  A    between atoms: _241  and  _243
REMARK  102  A    between atoms: _243  and  _244
REMARK  103  A    between atoms: _246  and  _248
REMARK  104  A    between atoms: _248  and  _249
REMARK  105  A    between atoms: _248  and  _251
REMARK  106  A    between atoms: _251  and  _252
REMARK  107  A    between atoms: _252  and  _253
REMARK  108  A    between atoms: _253  and  _254
REMARK  109  A    between atoms: _263  and  _265
REMARK  110  A    between atoms: _265  and  _266
REMARK  111  A    between atoms: _265  and  _268
REMARK  112  A    between atoms: _268  and  _269
REMARK  113  A    between atoms: _274  and  _276
REMARK  114  A    between atoms: _276  and  _277
REMARK  115  A    between atoms: _276  and  _279
REMARK  116  A    between atoms: _279  and  _280
REMARK  117  A    between atoms: _280  and  _281
REMARK  118  A    between atoms: _281  and  _282
REMARK  119  A    between atoms: _291  and  _293
REMARK  120  A    between atoms: _293  and  _294
REMARK  121  A    between atoms: _293  and  _296
REMARK  122  A    between atoms: _296  and  _297
REMARK  123  A    between atoms: _300  and  _302
REMARK  124  A    between atoms: _302  and  _303
REMARK  125  A    between atoms: _302  and  _305
REMARK  126  A    between atoms: _305  and  _306
REMARK  127  A    between atoms: _309  and  _311
REMARK  128  A    between atoms: _311  and  _312
REMARK  129  A    between atoms: _311  and  _314
REMARK  130  A    between atoms: _314  and  _315
REMARK  131  A    between atoms: _318  and  _320
REMARK  132  A    between atoms: _320  and  _321
REMARK  133  A    between atoms: _320  and  _323
REMARK  134  A    between atoms: _323  and  _324
REMARK  135  A    between atoms: _327  and  _329
REMARK  136  A    between atoms: _329  and  _330
REMARK  137  A    between atoms: _332  and  _334
REMARK  138  A    between atoms: _334  and  _335
REMARK  139  A    between atoms: _338  and  _340
REMARK  140  A    between atoms: _340  and  _341
REMARK  141  A    between atoms: _340  and  _343
REMARK  142  A    between atoms: _343  and  _344
REMARK  143  A    between atoms: _347  and  _349
REMARK  144  A    between atoms: _349  and  _350
REMARK  145  A    between atoms: _349  and  _352
REMARK  146  A    between atoms: _352  and  _353
REMARK  147  A    between atoms: _356  and  _358
REMARK  148  A    between atoms: _358  and  _359
REMARK  149  A    between atoms: _358  and  _361
REMARK  150  A    between atoms: _361  and  _362
REMARK  151  A    between atoms: _365  and  _367
REMARK  152  A    between atoms: _367  and  _368
REMARK  153  A    between atoms: _367  and  _370
REMARK  154  A    between atoms: _373  and  _375
REMARK  155  A    between atoms: _375  and  _376
REMARK  156  A    between atoms: _375  and  _378
REMARK  157  A    between atoms: _378  and  _379
REMARK  158  A    between atoms: _382  and  _384
REMARK  159  A    between atoms: _384  and  _385
REMARK  160  A    between atoms: _387  and  _389
REMARK  161  A    between atoms: _389  and  _390
REMARK  162  A    between atoms: _392  and  _394
REMARK  163  A    between atoms: _394  and  _395
REMARK  164  A    between atoms: _394  and  _397
REMARK  165  A    between atoms: _397  and  _398
REMARK  166  A    between atoms: _401  and  _403
REMARK  167  A    between atoms: _403  and  _404
REMARK  168  A    between atoms: _406  and  _408
REMARK  169  A    between atoms: _408  and  _409
REMARK  170  A    between atoms: _411  and  _413
REMARK  171  A    between atoms: _413  and  _414
REMARK  172  A    between atoms: _413  and  _416
REMARK  173  A    between atoms: _416  and  _417
REMARK  174  A    between atoms: _420  and  _422
REMARK  175  A    between atoms: _422  and  _423
REMARK  176  A    between atoms: _422  and  _425
REMARK  177  A    between atoms: _425  and  _426
REMARK  178  A    between atoms: _430  and  _431
REMARK  179  A    between atoms: _436  and  _438
REMARK  180  A    between atoms: _438  and  _439
REMARK  181  A    between atoms: _442  and  _444
REMARK  182  A    between atoms: _444  and  _445
REMARK  183  A    between atoms: _444  and  _447
REMARK  184  A    between atoms: _447  and  _448
REMARK  185  A    between atoms: _453  and  _455
REMARK  186  A    between atoms: _455  and  _456
REMARK  187  A    between atoms: _455  and  _458
REMARK  188  A    between atoms: _458  and  _459
REMARK  189  A    between atoms: _462  and  _464
REMARK  190  A    between atoms: _464  and  _465
REMARK  191  A    between atoms: _464  and  _467
REMARK  192  A    between atoms: _467  and  _468
REMARK  193  A    between atoms: _471  and  _473
REMARK  194  A    between atoms: _473  and  _474
REMARK  195  A    between atoms: _476  and  _478
REMARK  196  A    between atoms: _478  and  _479
REMARK  197  A    between atoms: _478  and  _481
REMARK  198  A    between atoms: _481  and  _482
REMARK  199  A    between atoms: _482  and  _483
REMARK  200  A    between atoms: _483  and  _484
REMARK  201  A    between atoms: _493  and  _495
REMARK  202  A    between atoms: _495  and  _496
REMARK  203  A    between atoms: _495  and  _498
REMARK  204  A    between atoms: _498  and  _499
REMARK                            x       y       z     vdW  Elec       q    Type
REMARK                         _______ _______ _______ _____ _____    ______ ____
ROOT
ATOM      1  O   HOH     1      14.660  35.765  26.199  0.00  0.00    +0.000 OA
ENDROOT
TORSDOF 0
REMARK  Name = ../refined-set-2016/2qd7/2qd7_pocket.pdb
REMARK  204 active torsions:
REMARK  status: ('A' for Active; 'I' for Inactive)
REMARK    1  A    between atoms: _1  and  _3
REMARK    2  A    between atoms: _3  and  _4
REMARK    3  A    between atoms: _3  and  _6
REMARK    4  A    between atoms: _6  and  _7
REMARK    5  A    between atoms: _7  and  _8
REMARK    6  A    between atoms: _8  and  _9
REMARK    7  A    between atoms: _18  and  _20
REMARK    8  A    between atoms: _20  and  _21
REMARK    9  A    between atoms: _20  and  _23
REMARK   10  A    between atoms: _23  and  _24
REMARK   11  A    between atoms: _27  and  _29
REMARK   12  A    between atoms: _29  and  _30
REMARK   13  A    between atoms: _29  and  _32
REMARK   14  A    between atoms: _32  and  _33
REMARK   15  A    between atoms: _36  and  _38
REMARK   16  A    between atoms: _38  and  _39
REMARK   17  A    between atoms: _38  and  _41
REMARK   18  A    between atoms: _41  and  _42
REMARK   19  A    between atoms: _45  and  _47
REMARK   20  A    between atoms: _47  and  _48
REMARK   21  A    between atoms: _47  and  _50
REMARK   22  A    between atoms: _50  and  _51
REMARK   23  A    between atoms: _54  and  _56
REMARK   24  A    between atoms: _56  and  _57
REMARK   25  A    between atoms: _59  and  _61
REMARK   26  A    between atoms: _61  and  _62
REMARK   27  A    between atoms: _65  and  _67
REMARK   28  A    between atoms: _67  and  _68
REMARK   29  A    between atoms: _67  and  _70
REMARK   30  A    between atoms: _70  and  _71
REMARK   31  A    between atoms: _74  and  _76
REMARK   32  A    between atoms: _76  and  _77
REMARK   33  A    between atoms: _76  and  _79
REMARK   34  A    between atoms: _79  and  _80
REMARK   35  A    between atoms: _83  and  _85
REMARK   36  A    between atoms: _85  and  _86
REMARK   37  A    between atoms: _85  and  _88
REMARK   38  A    between atoms: _88  and  _89
REMARK   39  A    between atoms: _92  and  _94
REMARK   40  A    between atoms: _94  and  _95
REMARK   41  A    between atoms: _94  and  _97
REMARK   42  A    between atoms: _100  and  _102
REMARK   43  A    between atoms: _102  and  _103
REMARK   44  A    between atoms: _102  and  _105
REMARK   45  A    between atoms: _105  and  _106
REMARK   46  A    between atoms: _106  and  _107
REMARK   47  A    between atoms: _107  and  _108
REMARK   48  A    between atoms: _108  and  _109
REMARK   49  A    between atoms: _113  and  _115
REMARK   50  A    between atoms: _115  and  _116
REMARK   51  A    between atoms: _115  and  _118
REMARK   52  A    between atoms: _118  and  _119
REMARK   53  A    between atoms: _119  and  _120
REMARK   54  A    between atoms: _122  and  _124
REMARK   55  A    between atoms: _124  and  _125
REMARK   56  A    between atoms: _124  and  _127
REMARK   57  A    between atoms: _127  and  _128
REMARK   58  A    between atoms: _131  and  _133
REMARK   59  A    between atoms: _133  and  _134
REMARK   60  A    between atoms: _136  and  _138
REMARK   61  A    between atoms: _138  and  _139
REMARK   62  A    between atoms: _141  and  _143
REMARK   63  A    between atoms: _143  and  _144
REMARK   64  A    between atoms: _143  and  _146
REMARK   65  A    between atoms: _146  and  _147
REMARK   66  A    between atoms: _150  and  _152
REMARK   67  A    between atoms: _152  and  _153
REMARK   68  A    between atoms: _155  and  _157
REMARK   69  A    between atoms: _157  and  _158
REMARK   70  A    between atoms: _160  and  _162
REMARK   71  A    between atoms: _162  and  _163
REMARK   72  A    between atoms: _162  and  _165
REMARK   73  A    between atoms: _165  and  _166
REMARK   74  A    between atoms: _172  and  _174
REMARK   75  A    between atoms: _174  and  _175
REMARK   76  A    between atoms: _174  and  _177
REMARK   77  A    between atoms: _177  and  _178
REMARK   78  A    between atoms: _181  and  _183
REMARK   79  A    between atoms: _183  and  _184
REMARK   80  A    between atoms: _183  and  _186
REMARK   81  A    between atoms: _186  and  _187
REMARK   82  A    between atoms: _190  and  _192
REMARK   83  A    between atoms: _192  and  _193
REMARK   84  A    between atoms: _192  and  _195
REMARK   85  A    between atoms: _195  and  _196
REMARK   86  A    between atoms: _200  and  _201
REMARK   87  A    between atoms: _206  and  _208
REMARK   88  A    between atoms: _208  and  _209
REMARK   89  A    between atoms: _212  and  _214
REMARK   90  A    between atoms: _214  and  _215
REMARK   91  A    between atoms: _214  and  _217
REMARK   92  A    between atoms: _217  and  _218
REMARK   93  A    between atoms: _223  and  _225
REMARK   94  A    between atoms: _225  and  _226
REMARK   95  A    between atoms: _225  and  _228
REMARK   96  A    between atoms: _228  and  _229
REMARK   97  A    between atoms: _232  and  _234
REMARK   98  A    between atoms: _234  and  _235
REMARK   99  A    between atoms: _234  and  _237
REMARK  100  A    between atoms: _237  and  _238
REMARK  101  A    between atoms: _241  and  _243
REMARK  102  A    between atoms: _243  and  _244
REMARK  103  A    between atoms: _246  and  _248
REMARK  104  A    between atoms: _248  and  _249
REMARK  105  A    between atoms: _248  and  _251
REMARK  106  A    between atoms: _251  and  _252
REMARK  107  A    between atoms: _252  and  _253
REMARK  108  A    between atoms: _253  and  _254
REMARK  109  A    between atoms: _263  and  _265
REMARK  110  A    between atoms: _265  and  _266
REMARK  111  A    between atoms: _265  and  _268
REMARK  112  A    between atoms: _268  and  _269
REMARK  113  A    between atoms: _274  and  _276
REMARK  114  A    between atoms: _276  and  _277
REMARK  115  A    between atoms: _276  and  _279
REMARK  116  A    between atoms: _279  and  _280
REMARK  117  A    between atoms: _280  and  _281
REMARK  118  A    between atoms: _281  and  _282
REMARK  119  A    between atoms: _291  and  _293
REMARK  120  A    between atoms: _293  and  _294
REMARK  121  A    between atoms: _293  and  _296
REMARK  122  A    between atoms: _296  and  _297
REMARK  123  A    between atoms: _300  and  _302
REMARK  124  A    between atoms: _302  and  _303
REMARK  125  A    between atoms: _302  and  _305
REMARK  126  A    between atoms: _305  and  _306
REMARK  127  A    between atoms: _309  and  _311
REMARK  128  A    between atoms: _311  and  _312
REMARK  129  A    between atoms: _311  and  _314
REMARK  130  A    between atoms: _314  and  _315
REMARK  131  A    between atoms: _318  and  _320
REMARK  132  A    between atoms: _320  and  _321
REMARK  133  A    between atoms: _320  and  _323
REMARK  134  A    between atoms: _323  and  _324
REMARK  135  A    between atoms: _327  and  _329
REMARK  136  A    between atoms: _329  and  _330
REMARK  137  A    between atoms: _332  and  _334
REMARK  138  A    between atoms: _334  and  _335
REMARK  139  A    between atoms: _338  and  _340
REMARK  140  A    between atoms: _340  and  _341
REMARK  141  A    between atoms: _340  and  _343
REMARK  142  A    between atoms: _343  and  _344
REMARK  143  A    between atoms: _347  and  _349
REMARK  144  A    between atoms: _349  and  _350
REMARK  145  A    between atoms: _349  and  _352
REMARK  146  A    between atoms: _352  and  _353
REMARK  147  A    between atoms: _356  and  _358
REMARK  148  A    between atoms: _358  and  _359
REMARK  149  A    between atoms: _358  and  _361
REMARK  150  A    between atoms: _361  and  _362
REMARK  151  A    between atoms: _365  and  _367
REMARK  152  A    between atoms: _367  and  _368
REMARK  153  A    between atoms: _367  and  _370
REMARK  154  A    between atoms: _373  and  _375
REMARK  155  A    between atoms: _375  and  _376
REMARK  156  A    between atoms: _375  and  _378
REMARK  157  A    between atoms: _378  and  _379
REMARK  158  A    between atoms: _382  and  _384
REMARK  159  A    between atoms: _384  and  _385
REMARK  160  A    between atoms: _387  and  _389
REMARK  161  A    between atoms: _389  and  _390
REMARK  162  A    between atoms: _392  and  _394
REMARK  163  A    between atoms: _394  and  _395
REMARK  164  A    between atoms: _394  and  _397
REMARK  165  A    between atoms: _397  and  _398
REMARK  166  A    between atoms: _401  and  _403
REMARK  167  A    between atoms: _403  and  _404
REMARK  168  A    between atoms: _406  and  _408
REMARK  169  A    between atoms: _408  and  _409
REMARK  170  A    between atoms: _411  and  _413
REMARK  171  A    between atoms: _413  and  _414
REMARK  172  A    between atoms: _413  and  _416
REMARK  173  A    between atoms: _416  and  _417
REMARK  174  A    between atoms: _420  and  _422
REMARK  175  A    between atoms: _422  and  _423
REMARK  176  A    between atoms: _422  and  _425
REMARK  177  A    between atoms: _425  and  _426
REMARK  178  A    between atoms: _430  and  _431
REMARK  179  A    between atoms: _436  and  _438
REMARK  180  A    between atoms: _438  and  _439
REMARK  181  A    between atoms: _442  and  _444
REMARK  182  A    between atoms: _444  and  _445
REMARK  183  A    between atoms: _444  and  _447
REMARK  184  A    between atoms: _447  and  _448
REMARK  185  A    between atoms: _453  and  _455
REMARK  186  A    between atoms: _455  and  _456
REMARK  187  A    between atoms: _455  and  _458
REMARK  188  A    between atoms: _458  and  _459
REMARK  189  A    between atoms: _462  and  _464
REMARK  190  A    between atoms: _464  and  _465
REMARK  191  A    between atoms: _464  and  _467
REMARK  192  A    between atoms: _467  and  _468
REMARK  193  A    between atoms: _471  and  _473
REMARK  194  A    between atoms: _473  and  _474
REMARK  195  A    between atoms: _476  and  _478
REMARK  196  A    between atoms: _478  and  _479
REMARK  197  A    between atoms: _478  and  _481
REMARK  198  A    between atoms: _481  and  _482
REMARK  199  A    between atoms: _482  and  _483
REMARK  200  A    between atoms: _483  and  _484
REMARK  201  A    between atoms: _493  and  _495
REMARK  202  A    between atoms: _495  and  _496
REMARK  203  A    between atoms: _495  and  _498
REMARK  204  A    between atoms: _498  and  _499
REMARK                            x       y       z     vdW  Elec       q    Type
REMARK                         _______ _______ _______ _____ _____    ______ ____
ROOT
ATOM      1  O   HOH     1      10.993  23.126  12.268  0.00  0.00    +0.000 OA
ENDROOT
TORSDOF 0
REMARK  Name = ../refined-set-2016/2qd7/2qd7_pocket.pdb
REMARK  204 active torsions:
REMARK  status: ('A' for Active; 'I' for Inactive)
REMARK    1  A    between atoms: _1  and  _3
REMARK    2  A    between atoms: _3  and  _4
REMARK    3  A    between atoms: _3  and  _6
REMARK    4  A    between atoms: _6  and  _7
REMARK    5  A    between atoms: _7  and  _8
REMARK    6  A    between atoms: _8  and  _9
REMARK    7  A    between atoms: _18  and  _20
REMARK    8  A    between atoms: _20  and  _21
REMARK    9  A    between atoms: _20  and  _23
REMARK   10  A    between atoms: _23  and  _24
REMARK   11  A    between atoms: _27  and  _29
REMARK   12  A    between atoms: _29  and  _30
REMARK   13  A    between atoms: _29  and  _32
REMARK   14  A    between atoms: _32  and  _33
REMARK   15  A    between atoms: _36  and  _38
REMARK   16  A    between atoms: _38  and  _39
REMARK   17  A    between atoms: _38  and  _41
REMARK   18  A    between atoms: _41  and  _42
REMARK   19  A    between atoms: _45  and  _47
REMARK   20  A    between atoms: _47  and  _48
REMARK   21  A    between atoms: _47  and  _50
REMARK   22  A    between atoms: _50  and  _51
REMARK   23  A    between atoms: _54  and  _56
REMARK   24  A    between atoms: _56  and  _57
REMARK   25  A    between atoms: _59  and  _61
REMARK   26  A    between atoms: _61  and  _62
REMARK   27  A    between atoms: _65  and  _67
REMARK   28  A    between atoms: _67  and  _68
REMARK   29  A    between atoms: _67  and  _70
REMARK   30  A    between atoms: _70  and  _71
REMARK   31  A    between atoms: _74  and  _76
REMARK   32  A    between atoms: _76  and  _77
REMARK   33  A    between atoms: _76  and  _79
REMARK   34  A    between atoms: _79  and  _80
REMARK   35  A    between atoms: _83  and  _85
REMARK   36  A    between atoms: _85  and  _86
REMARK   37  A    between atoms: _85  and  _88
REMARK   38  A    between atoms: _88  and  _89
REMARK   39  A    between atoms: _92  and  _94
REMARK   40  A    between atoms: _94  and  _95
REMARK   41  A    between atoms: _94  and  _97
REMARK   42  A    between atoms: _100  and  _102
REMARK   43  A    between atoms: _102  and  _103
REMARK   44  A    between atoms: _102  and  _105
REMARK   45  A    between atoms: _105  and  _106
REMARK   46  A    between atoms: _106  and  _107
REMARK   47  A    between atoms: _107  and  _108
REMARK   48  A    between atoms: _108  and  _109
REMARK   49  A    between atoms: _113  and  _115
REMARK   50  A    between atoms: _115  and  _116
REMARK   51  A    between atoms: _115  and  _118
REMARK   52  A    between atoms: _118  and  _119
REMARK   53  A    between atoms: _119  and  _120
REMARK   54  A    between atoms: _122  and  _124
REMARK   55  A    between atoms: _124  and  _125
REMARK   56  A    between atoms: _124  and  _127
REMARK   57  A    between atoms: _127  and  _128
REMARK   58  A    between atoms: _131  and  _133
REMARK   59  A    between atoms: _133  and  _134
REMARK   60  A    between atoms: _136  and  _138
REMARK   61  A    between atoms: _138  and  _139
REMARK   62  A    between atoms: _141  and  _143
REMARK   63  A    between atoms: _143  and  _144
REMARK   64  A    between atoms: _143  and  _146
REMARK   65  A    between atoms: _146  and  _147
REMARK   66  A    between atoms: _150  and  _152
REMARK   67  A    between atoms: _152  and  _153
REMARK   68  A    between atoms: _155  and  _157
REMARK   69  A    between atoms: _157  and  _158
REMARK   70  A    between atoms: _160  and  _162
REMARK   71  A    between atoms: _162  and  _163
REMARK   72  A    between atoms: _162  and  _165
REMARK   73  A    between atoms: _165  and  _166
REMARK   74  A    between atoms: _172  and  _174
REMARK   75  A    between atoms: _174  and  _175
REMARK   76  A    between atoms: _174  and  _177
REMARK   77  A    between atoms: _177  and  _178
REMARK   78  A    between atoms: _181  and  _183
REMARK   79  A    between atoms: _183  and  _184
REMARK   80  A    between atoms: _183  and  _186
REMARK   81  A    between atoms: _186  and  _187
REMARK   82  A    between atoms: _190  and  _192
REMARK   83  A    between atoms: _192  and  _193
REMARK   84  A    between atoms: _192  and  _195
REMARK   85  A    between atoms: _195  and  _196
REMARK   86  A    between atoms: _200  and  _201
REMARK   87  A    between atoms: _206  and  _208
REMARK   88  A    between atoms: _208  and  _209
REMARK   89  A    between atoms: _212  and  _214
REMARK   90  A    between atoms: _214  and  _215
REMARK   91  A    between atoms: _214  and  _217
REMARK   92  A    between atoms: _217  and  _218
REMARK   93  A    between atoms: _223  and  _225
REMARK   94  A    between atoms: _225  and  _226
REMARK   95  A    between atoms: _225  and  _228
REMARK   96  A    between atoms: _228  and  _229
REMARK   97  A    between atoms: _232  and  _234
REMARK   98  A    between atoms: _234  and  _235
REMARK   99  A    between atoms: _234  and  _237
REMARK  100  A    between atoms: _237  and  _238
REMARK  101  A    between atoms: _241  and  _243
REMARK  102  A    between atoms: _243  and  _244
REMARK  103  A    between atoms: _246  and  _248
REMARK  104  A    between atoms: _248  and  _249
REMARK  105  A    between atoms: _248  and  _251
REMARK  106  A    between atoms: _251  and  _252
REMARK  107  A    between atoms: _252  and  _253
REMARK  108  A    between atoms: _253  and  _254
REMARK  109  A    between atoms: _263  and  _265
REMARK  110  A    between atoms: _265  and  _266
REMARK  111  A    between atoms: _265  and  _268
REMARK  112  A    between atoms: _268  and  _269
REMARK  113  A    between atoms: _274  and  _276
REMARK  114  A    between atoms: _276  and  _277
REMARK  115  A    between atoms: _276  and  _279
REMARK  116  A    between atoms: _279  and  _280
REMARK  117  A    between atoms: _280  and  _281
REMARK  118  A    between atoms: _281  and  _282
REMARK  119  A    between atoms: _291  and  _293
REMARK  120  A    between atoms: _293  and  _294
REMARK  121  A    between atoms: _293  and  _296
REMARK  122  A    between atoms: _296  and  _297
REMARK  123  A    between atoms: _300  and  _302
REMARK  124  A    between atoms: _302  and  _303
REMARK  125  A    between atoms: _302  and  _305
REMARK  126  A    between atoms: _305  and  _306
REMARK  127  A    between atoms: _309  and  _311
REMARK  128  A    between atoms: _311  and  _312
REMARK  129  A    between atoms: _311  and  _314
REMARK  130  A    between atoms: _314  and  _315
REMARK  131  A    between atoms: _318  and  _320
REMARK  132  A    between atoms: _320  and  _321
REMARK  133  A    between atoms: _320  and  _323
REMARK  134  A    between atoms: _323  and  _324
REMARK  135  A    between atoms: _327  and  _329
REMARK  136  A    between atoms: _329  and  _330
REMARK  137  A    between atoms: _332  and  _334
REMARK  138  A    between atoms: _334  and  _335
REMARK  139  A    between atoms: _338  and  _340
REMARK  140  A    between atoms: _340  and  _341
REMARK  141  A    between atoms: _340  and  _343
REMARK  142  A    between atoms: _343  and  _344
REMARK  143  A    between atoms: _347  and  _349
REMARK  144  A    between atoms: _349  and  _350
REMARK  145  A    between atoms: _349  and  _352
REMARK  146  A    between atoms: _352  and  _353
REMARK  147  A    between atoms: _356  and  _358
REMARK  148  A    between atoms: _358  and  _359
REMARK  149  A    between atoms: _358  and  _361
REMARK  150  A    between atoms: _361  and  _362
REMARK  151  A    between atoms: _365  and  _367
REMARK  152  A    between atoms: _367  and  _368
REMARK  153  A    between atoms: _367  and  _370
REMARK  154  A    between atoms: _373  and  _375
REMARK  155  A    between atoms: _375  and  _376
REMARK  156  A    between atoms: _375  and  _378
REMARK  157  A    between atoms: _378  and  _379
REMARK  158  A    between atoms: _382  and  _384
REMARK  159  A    between atoms: _384  and  _385
REMARK  160  A    between atoms: _387  and  _389
REMARK  161  A    between atoms: _389  and  _390
REMARK  162  A    between atoms: _392  and  _394
REMARK  163  A    between atoms: _394  and  _395
REMARK  164  A    between atoms: _394  and  _397
REMARK  165  A    between atoms: _397  and  _398
REMARK  166  A    between atoms: _401  and  _403
REMARK  167  A    between atoms: _403  and  _404
REMARK  168  A    between atoms: _406  and  _408
REMARK  169  A    between atoms: _408  and  _409
REMARK  170  A    between atoms: _411  and  _413
REMARK  171  A    between atoms: _413  and  _414
REMARK  172  A    between atoms: _413  and  _416
REMARK  173  A    between atoms: _416  and  _417
REMARK  174  A    between atoms: _420  and  _422
REMARK  175  A    between atoms: _422  and  _423
REMARK  176  A    between atoms: _422  and  _425
REMARK  177  A    between atoms: _425  and  _426
REMARK  178  A    between atoms: _430  and  _431
REMARK  179  A    between atoms: _436  and  _438
REMARK  180  A    between atoms: _438  and  _439
REMARK  181  A    between atoms: _442  and  _444
REMARK  182  A    between atoms: _444  and  _445
REMARK  183  A    between atoms: _444  and  _447
REMARK  184  A    between atoms: _447  and  _448
REMARK  185  A    between atoms: _453  and  _455
REMARK  186  A    between atoms: _455  and  _456
REMARK  187  A    between atoms: _455  and  _458
REMARK  188  A    between atoms: _458  and  _459
REMARK  189  A    between atoms: _462  and  _464
REMARK  190  A    between atoms: _464  and  _465
REMARK  191  A    between atoms: _464  and  _467
REMARK  192  A    between atoms: _467  and  _468
REMARK  193  A    between atoms: _471  and  _473
REMARK  194  A    between atoms: _473  and  _474
REMARK  195  A    between atoms: _476  and  _478
REMARK  196  A    between atoms: _478  and  _479
REMARK  197  A    between atoms: _478  and  _481
REMARK  198  A    between atoms: _481  and  _482
REMARK  199  A    between atoms: _482  and  _483
REMARK  200  A    between atoms: _483  and  _484
REMARK  201  A    between atoms: _493  and  _495
REMARK  202  A    between atoms: _495  and  _496
REMARK  203  A    between atoms: _495  and  _498
REMARK  204  A    between atoms: _498  and  _499
REMARK                            x       y       z     vdW  Elec       q    Type
REMARK                         _______ _______ _______ _____ _____    ______ ____
ROOT
ATOM      1  O   HOH     1      21.470  36.838  16.135  0.00  0.00    +0.000 OA
ENDROOT
TORSDOF 0
REMARK  Name = ../refined-set-2016/2qd7/2qd7_pocket.pdb
REMARK  204 active torsions:
REMARK  status: ('A' for Active; 'I' for Inactive)
REMARK    1  A    between atoms: _1  and  _3
REMARK    2  A    between atoms: _3  and  _4
REMARK    3  A    between atoms: _3  and  _6
REMARK    4  A    between atoms: _6  and  _7
REMARK    5  A    between atoms: _7  and  _8
REMARK    6  A    between atoms: _8  and  _9
REMARK    7  A    between atoms: _18  and  _20
REMARK    8  A    between atoms: _20  and  _21
REMARK    9  A    between atoms: _20  and  _23
REMARK   10  A    between atoms: _23  and  _24
REMARK   11  A    between atoms: _27  and  _29
REMARK   12  A    between atoms: _29  and  _30
REMARK   13  A    between atoms: _29  and  _32
REMARK   14  A    between atoms: _32  and  _33
REMARK   15  A    between atoms: _36  and  _38
REMARK   16  A    between atoms: _38  and  _39
REMARK   17  A    between atoms: _38  and  _41
REMARK   18  A    between atoms: _41  and  _42
REMARK   19  A    between atoms: _45  and  _47
REMARK   20  A    between atoms: _47  and  _48
REMARK   21  A    between atoms: _47  and  _50
REMARK   22  A    between atoms: _50  and  _51
REMARK   23  A    between atoms: _54  and  _56
REMARK   24  A    between atoms: _56  and  _57
REMARK   25  A    between atoms: _59  and  _61
REMARK   26  A    between atoms: _61  and  _62
REMARK   27  A    between atoms: _65  and  _67
REMARK   28  A    between atoms: _67  and  _68
REMARK   29  A    between atoms: _67  and  _70
REMARK   30  A    between atoms: _70  and  _71
REMARK   31  A    between atoms: _74  and  _76
REMARK   32  A    between atoms: _76  and  _77
REMARK   33  A    between atoms: _76  and  _79
REMARK   34  A    between atoms: _79  and  _80
REMARK   35  A    between atoms: _83  and  _85
REMARK   36  A    between atoms: _85  and  _86
REMARK   37  A    between atoms: _85  and  _88
REMARK   38  A    between atoms: _88  and  _89
REMARK   39  A    between atoms: _92  and  _94
REMARK   40  A    between atoms: _94  and  _95
REMARK   41  A    between atoms: _94  and  _97
REMARK   42  A    between atoms: _100  and  _102
REMARK   43  A    between atoms: _102  and  _103
REMARK   44  A    between atoms: _102  and  _105
REMARK   45  A    between atoms: _105  and  _106
REMARK   46  A    between atoms: _106  and  _107
REMARK   47  A    between atoms: _107  and  _108
REMARK   48  A    between atoms: _108  and  _109
REMARK   49  A    between atoms: _113  and  _115
REMARK   50  A    between atoms: _115  and  _116
REMARK   51  A    between atoms: _115  and  _118
REMARK   52  A    between atoms: _118  and  _119
REMARK   53  A    between atoms: _119  and  _120
REMARK   54  A    between atoms: _122  and  _124
REMARK   55  A    between atoms: _124  and  _125
REMARK   56  A    between atoms: _124  and  _127
REMARK   57  A    between atoms: _127  and  _128
REMARK   58  A    between atoms: _131  and  _133
REMARK   59  A    between atoms: _133  and  _134
REMARK   60  A    between atoms: _136  and  _138
REMARK   61  A    between atoms: _138  and  _139
REMARK   62  A    between atoms: _141  and  _143
REMARK   63  A    between atoms: _143  and  _144
REMARK   64  A    between atoms: _143  and  _146
REMARK   65  A    between atoms: _146  and  _147
REMARK   66  A    between atoms: _150  and  _152
REMARK   67  A    between atoms: _152  and  _153
REMARK   68  A    between atoms: _155  and  _157
REMARK   69  A    between atoms: _157  and  _158
REMARK   70  A    between atoms: _160  and  _162
REMARK   71  A    between atoms: _162  and  _163
REMARK   72  A    between atoms: _162  and  _165
REMARK   73  A    between atoms: _165  and  _166
REMARK   74  A    between atoms: _172  and  _174
REMARK   75  A    between atoms: _174  and  _175
REMARK   76  A    between atoms: _174  and  _177
REMARK   77  A    between atoms: _177  and  _178
REMARK   78  A    between atoms: _181  and  _183
REMARK   79  A    between atoms: _183  and  _184
REMARK   80  A    between atoms: _183  and  _186
REMARK   81  A    between atoms: _186  and  _187
REMARK   82  A    between atoms: _190  and  _192
REMARK   83  A    between atoms: _192  and  _193
REMARK   84  A    between atoms: _192  and  _195
REMARK   85  A    between atoms: _195  and  _196
REMARK   86  A    between atoms: _200  and  _201
REMARK   87  A    between atoms: _206  and  _208
REMARK   88  A    between atoms: _208  and  _209
REMARK   89  A    between atoms: _212  and  _214
REMARK   90  A    between atoms: _214  and  _215
REMARK   91  A    between atoms: _214  and  _217
REMARK   92  A    between atoms: _217  and  _218
REMARK   93  A    between atoms: _223  and  _225
REMARK   94  A    between atoms: _225  and  _226
REMARK   95  A    between atoms: _225  and  _228
REMARK   96  A    between atoms: _228  and  _229
REMARK   97  A    between atoms: _232  and  _234
REMARK   98  A    between atoms: _234  and  _235
REMARK   99  A    between atoms: _234  and  _237
REMARK  100  A    between atoms: _237  and  _238
REMARK  101  A    between atoms: _241  and  _243
REMARK  102  A    between atoms: _243  and  _244
REMARK  103  A    between atoms: _246  and  _248
REMARK  104  A    between atoms: _248  and  _249
REMARK  105  A    between atoms: _248  and  _251
REMARK  106  A    between atoms: _251  and  _252
REMARK  107  A    between atoms: _252  and  _253
REMARK  108  A    between atoms: _253  and  _254
REMARK  109  A    between atoms: _263  and  _265
REMARK  110  A    between atoms: _265  and  _266
REMARK  111  A    between atoms: _265  and  _268
REMARK  112  A    between atoms: _268  and  _269
REMARK  113  A    between atoms: _274  and  _276
REMARK  114  A    between atoms: _276  and  _277
REMARK  115  A    between atoms: _276  and  _279
REMARK  116  A    between atoms: _279  and  _280
REMARK  117  A    between atoms: _280  and  _281
REMARK  118  A    between atoms: _281  and  _282
REMARK  119  A    between atoms: _291  and  _293
REMARK  120  A    between atoms: _293  and  _294
REMARK  121  A    between atoms: _293  and  _296
REMARK  122  A    between atoms: _296  and  _297
REMARK  123  A    between atoms: _300  and  _302
REMARK  124  A    between atoms: _302  and  _303
REMARK  125  A    between atoms: _302  and  _305
REMARK  126  A    between atoms: _305  and  _306
REMARK  127  A    between atoms: _309  and  _311
REMARK  128  A    between atoms: _311  and  _312
REMARK  129  A    between atoms: _311  and  _314
REMARK  130  A    between atoms: _314  and  _315
REMARK  131  A    between atoms: _318  and  _320
REMARK  132  A    between atoms: _320  and  _321
REMARK  133  A    between atoms: _320  and  _323
REMARK  134  A    between atoms: _323  and  _324
REMARK  135  A    between atoms: _327  and  _329
REMARK  136  A    between atoms: _329  and  _330
REMARK  137  A    between atoms: _332  and  _334
REMARK  138  A    between atoms: _334  and  _335
REMARK  139  A    between atoms: _338  and  _340
REMARK  140  A    between atoms: _340  and  _341
REMARK  141  A    between atoms: _340  and  _343
REMARK  142  A    between atoms: _343  and  _344
REMARK  143  A    between atoms: _347  and  _349
REMARK  144  A    between atoms: _349  and  _350
REMARK  145  A    between atoms: _349  and  _352
REMARK  146  A    between atoms: _352  and  _353
REMARK  147  A    between atoms: _356  and  _358
REMARK  148  A    between atoms: _358  and  _359
REMARK  149  A    between atoms: _358  and  _361
REMARK  150  A    between atoms: _361  and  _362
REMARK  151  A    between atoms: _365  and  _367
REMARK  152  A    between atoms: _367  and  _368
REMARK  153  A    between atoms: _367  and  _370
REMARK  154  A    between atoms: _373  and  _375
REMARK  155  A    between atoms: _375  and  _376
REMARK  156  A    between atoms: _375  and  _378
REMARK  157  A    between atoms: _378  and  _379
REMARK  158  A    between atoms: _382  and  _384
REMARK  159  A    between atoms: _384  and  _385
REMARK  160  A    between atoms: _387  and  _389
REMARK  161  A    between atoms: _389  and  _390
REMARK  162  A    between atoms: _392  and  _394
REMARK  163  A    between atoms: _394  and  _395
REMARK  164  A    between atoms: _394  and  _397
REMARK  165  A    between atoms: _397  and  _398
REMARK  166  A    between atoms: _401  and  _403
REMARK  167  A    between atoms: _403  and  _404
REMARK  168  A    between atoms: _406  and  _408
REMARK  169  A    between atoms: _408  and  _409
REMARK  170  A    between atoms: _411  and  _413
REMARK  171  A    between atoms: _413  and  _414
REMARK  172  A    between atoms: _413  and  _416
REMARK  173  A    between atoms: _416  and  _417
REMARK  174  A    between atoms: _420  and  _422
REMARK  175  A    between atoms: _422  and  _423
REMARK  176  A    between atoms: _422  and  _425
REMARK  177  A    between atoms: _425  and  _426
REMARK  178  A    between atoms: _430  and  _431
REMARK  179  A    between atoms: _436  and  _438
REMARK  180  A    between atoms: _438  and  _439
REMARK  181  A    between atoms: _442  and  _444
REMARK  182  A    between atoms: _444  and  _445
REMARK  183  A    between atoms: _444  and  _447
REMARK  184  A    between atoms: _447  and  _448
REMARK  185  A    between atoms: _453  and  _455
REMARK  186  A    between atoms: _455  and  _456
REMARK  187  A    between atoms: _455  and  _458
REMARK  188  A    between atoms: _458  and  _459
REMARK  189  A    between atoms: _462  and  _464
REMARK  190  A    between atoms: _464  and  _465
REMARK  191  A    between atoms: _464  and  _467
REMARK  192  A    between atoms: _467  and  _468
REMARK  193  A    between atoms: _471  and  _473
REMARK  194  A    between atoms: _473  and  _474
REMARK  195  A    between atoms: _476  and  _478
REMARK  196  A    between atoms: _478  and  _479
REMARK  197  A    between atoms: _478  and  _481
REMARK  198  A    between atoms: _481  and  _482
REMARK  199  A    between atoms: _482  and  _483
REMARK  200  A    between atoms: _483  and  _484
REMARK  201  A    between atoms: _493  and  _495
REMARK  202  A    between atoms: _495  and  _496
REMARK  203  A    between atoms: _495  and  _498
REMARK  204  A    between atoms: _498  and  _499
REMARK                            x       y       z     vdW  Elec       q    Type
REMARK                         _______ _______ _______ _____ _____    ______ ____
ROOT
ATOM      1  O   HOH     1      14.518  40.141  20.356  0.00  0.00    +0.000 OA
ENDROOT
TORSDOF 0
REMARK  Name = ../refined-set-2016/2qd7/2qd7_pocket.pdb
REMARK  204 active torsions:
REMARK  status: ('A' for Active; 'I' for Inactive)
REMARK    1  A    between atoms: _1  and  _3
REMARK    2  A    between atoms: _3  and  _4
REMARK    3  A    between atoms: _3  and  _6
REMARK    4  A    between atoms: _6  and  _7
REMARK    5  A    between atoms: _7  and  _8
REMARK    6  A    between atoms: _8  and  _9
REMARK    7  A    between atoms: _18  and  _20
REMARK    8  A    between atoms: _20  and  _21
REMARK    9  A    between atoms: _20  and  _23
REMARK   10  A    between atoms: _23  and  _24
REMARK   11  A    between atoms: _27  and  _29
REMARK   12  A    between atoms: _29  and  _30
REMARK   13  A    between atoms: _29  and  _32
REMARK   14  A    between atoms: _32  and  _33
REMARK   15  A    between atoms: _36  and  _38
REMARK   16  A    between atoms: _38  and  _39
REMARK   17  A    between atoms: _38  and  _41
REMARK   18  A    between atoms: _41  and  _42
REMARK   19  A    between atoms: _45  and  _47
REMARK   20  A    between atoms: _47  and  _48
REMARK   21  A    between atoms: _47  and  _50
REMARK   22  A    between atoms: _50  and  _51
REMARK   23  A    between atoms: _54  and  _56
REMARK   24  A    between atoms: _56  and  _57
REMARK   25  A    between atoms: _59  and  _61
REMARK   26  A    between atoms: _61  and  _62
REMARK   27  A    between atoms: _65  and  _67
REMARK   28  A    between atoms: _67  and  _68
REMARK   29  A    between atoms: _67  and  _70
REMARK   30  A    between atoms: _70  and  _71
REMARK   31  A    between atoms: _74  and  _76
REMARK   32  A    between atoms: _76  and  _77
REMARK   33  A    between atoms: _76  and  _79
REMARK   34  A    between atoms: _79  and  _80
REMARK   35  A    between atoms: _83  and  _85
REMARK   36  A    between atoms: _85  and  _86
REMARK   37  A    between atoms: _85  and  _88
REMARK   38  A    between atoms: _88  and  _89
REMARK   39  A    between atoms: _92  and  _94
REMARK   40  A    between atoms: _94  and  _95
REMARK   41  A    between atoms: _94  and  _97
REMARK   42  A    between atoms: _100  and  _102
REMARK   43  A    between atoms: _102  and  _103
REMARK   44  A    between atoms: _102  and  _105
REMARK   45  A    between atoms: _105  and  _106
REMARK   46  A    between atoms: _106  and  _107
REMARK   47  A    between atoms: _107  and  _108
REMARK   48  A    between atoms: _108  and  _109
REMARK   49  A    between atoms: _113  and  _115
REMARK   50  A    between atoms: _115  and  _116
REMARK   51  A    between atoms: _115  and  _118
REMARK   52  A    between atoms: _118  and  _119
REMARK   53  A    between atoms: _119  and  _120
REMARK   54  A    between atoms: _122  and  _124
REMARK   55  A    between atoms: _124  and  _125
REMARK   56  A    between atoms: _124  and  _127
REMARK   57  A    between atoms: _127  and  _128
REMARK   58  A    between atoms: _131  and  _133
REMARK   59  A    between atoms: _133  and  _134
REMARK   60  A    between atoms: _136  and  _138
REMARK   61  A    between atoms: _138  and  _139
REMARK   62  A    between atoms: _141  and  _143
REMARK   63  A    between atoms: _143  and  _144
REMARK   64  A    between atoms: _143  and  _146
REMARK   65  A    between atoms: _146  and  _147
REMARK   66  A    between atoms: _150  and  _152
REMARK   67  A    between atoms: _152  and  _153
REMARK   68  A    between atoms: _155  and  _157
REMARK   69  A    between atoms: _157  and  _158
REMARK   70  A    between atoms: _160  and  _162
REMARK   71  A    between atoms: _162  and  _163
REMARK   72  A    between atoms: _162  and  _165
REMARK   73  A    between atoms: _165  and  _166
REMARK   74  A    between atoms: _172  and  _174
REMARK   75  A    between atoms: _174  and  _175
REMARK   76  A    between atoms: _174  and  _177
REMARK   77  A    between atoms: _177  and  _178
REMARK   78  A    between atoms: _181  and  _183
REMARK   79  A    between atoms: _183  and  _184
REMARK   80  A    between atoms: _183  and  _186
REMARK   81  A    between atoms: _186  and  _187
REMARK   82  A    between atoms: _190  and  _192
REMARK   83  A    between atoms: _192  and  _193
REMARK   84  A    between atoms: _192  and  _195
REMARK   85  A    between atoms: _195  and  _196
REMARK   86  A    between atoms: _200  and  _201
REMARK   87  A    between atoms: _206  and  _208
REMARK   88  A    between atoms: _208  and  _209
REMARK   89  A    between atoms: _212  and  _214
REMARK   90  A    between atoms: _214  and  _215
REMARK   91  A    between atoms: _214  and  _217
REMARK   92  A    between atoms: _217  and  _218
REMARK   93  A    between atoms: _223  and  _225
REMARK   94  A    between atoms: _225  and  _226
REMARK   95  A    between atoms: _225  and  _228
REMARK   96  A    between atoms: _228  and  _229
REMARK   97  A    between atoms: _232  and  _234
REMARK   98  A    between atoms: _234  and  _235
REMARK   99  A    between atoms: _234  and  _237
REMARK  100  A    between atoms: _237  and  _238
REMARK  101  A    between atoms: _241  and  _243
REMARK  102  A    between atoms: _243  and  _244
REMARK  103  A    between atoms: _246  and  _248
REMARK  104  A    between atoms: _248  and  _249
REMARK  105  A    between atoms: _248  and  _251
REMARK  106  A    between atoms: _251  and  _252
REMARK  107  A    between atoms: _252  and  _253
REMARK  108  A    between atoms: _253  and  _254
REMARK  109  A    between atoms: _263  and  _265
REMARK  110  A    between atoms: _265  and  _266
REMARK  111  A    between atoms: _265  and  _268
REMARK  112  A    between atoms: _268  and  _269
REMARK  113  A    between atoms: _274  and  _276
REMARK  114  A    between atoms: _276  and  _277
REMARK  115  A    between atoms: _276  and  _279
REMARK  116  A    between atoms: _279  and  _280
REMARK  117  A    between atoms: _280  and  _281
REMARK  118  A    between atoms: _281  and  _282
REMARK  119  A    between atoms: _291  and  _293
REMARK  120  A    between atoms: _293  and  _294
REMARK  121  A    between atoms: _293  and  _296
REMARK  122  A    between atoms: _296  and  _297
REMARK  123  A    between atoms: _300  and  _302
REMARK  124  A    between atoms: _302  and  _303
REMARK  125  A    between atoms: _302  and  _305
REMARK  126  A    between atoms: _305  and  _306
REMARK  127  A    between atoms: _309  and  _311
REMARK  128  A    between atoms: _311  and  _312
REMARK  129  A    between atoms: _311  and  _314
REMARK  130  A    between atoms: _314  and  _315
REMARK  131  A    between atoms: _318  and  _320
REMARK  132  A    between atoms: _320  and  _321
REMARK  133  A    between atoms: _320  and  _323
REMARK  134  A    between atoms: _323  and  _324
REMARK  135  A    between atoms: _327  and  _329
REMARK  136  A    between atoms: _329  and  _330
REMARK  137  A    between atoms: _332  and  _334
REMARK  138  A    between atoms: _334  and  _335
REMARK  139  A    between atoms: _338  and  _340
REMARK  140  A    between atoms: _340  and  _341
REMARK  141  A    between atoms: _340  and  _343
REMARK  142  A    between atoms: _343  and  _344
REMARK  143  A    between atoms: _347  and  _349
REMARK  144  A    between atoms: _349  and  _350
REMARK  145  A    between atoms: _349  and  _352
REMARK  146  A    between atoms: _352  and  _353
REMARK  147  A    between atoms: _356  and  _358
REMARK  148  A    between atoms: _358  and  _359
REMARK  149  A    between atoms: _358  and  _361
REMARK  150  A    between atoms: _361  and  _362
REMARK  151  A    between atoms: _365  and  _367
REMARK  152  A    between atoms: _367  and  _368
REMARK  153  A    between atoms: _367  and  _370
REMARK  154  A    between atoms: _373  and  _375
REMARK  155  A    between atoms: _375  and  _376
REMARK  156  A    between atoms: _375  and  _378
REMARK  157  A    between atoms: _378  and  _379
REMARK  158  A    between atoms: _382  and  _384
REMARK  159  A    between atoms: _384  and  _385
REMARK  160  A    between atoms: _387  and  _389
REMARK  161  A    between atoms: _389  and  _390
REMARK  162  A    between atoms: _392  and  _394
REMARK  163  A    between atoms: _394  and  _395
REMARK  164  A    between atoms: _394  and  _397
REMARK  165  A    between atoms: _397  and  _398
REMARK  166  A    between atoms: _401  and  _403
REMARK  167  A    between atoms: _403  and  _404
REMARK  168  A    between atoms: _406  and  _408
REMARK  169  A    between atoms: _408  and  _409
REMARK  170  A    between atoms: _411  and  _413
REMARK  171  A    between atoms: _413  and  _414
REMARK  172  A    between atoms: _413  and  _416
REMARK  173  A    between atoms: _416  and  _417
REMARK  174  A    between atoms: _420  and  _422
REMARK  175  A    between atoms: _422  and  _423
REMARK  176  A    between atoms: _422  and  _425
REMARK  177  A    between atoms: _425  and  _426
REMARK  178  A    between atoms: _430  and  _431
REMARK  179  A    between atoms: _436  and  _438
REMARK  180  A    between atoms: _438  and  _439
REMARK  181  A    between atoms: _442  and  _444
REMARK  182  A    between atoms: _444  and  _445
REMARK  183  A    between atoms: _444  and  _447
REMARK  184  A    between atoms: _447  and  _448
REMARK  185  A    between atoms: _453  and  _455
REMARK  186  A    between atoms: _455  and  _456
REMARK  187  A    between atoms: _455  and  _458
REMARK  188  A    between atoms: _458  and  _459
REMARK  189  A    between atoms: _462  and  _464
REMARK  190  A    between atoms: _464  and  _465
REMARK  191  A    between atoms: _464  and  _467
REMARK  192  A    between atoms: _467  and  _468
REMARK  193  A    between atoms: _471  and  _473
REMARK  194  A    between atoms: _473  and  _474
REMARK  195  A    between atoms: _476  and  _478
REMARK  196  A    between atoms: _478  and  _479
REMARK  197  A    between atoms: _478  and  _481
REMARK  198  A    between atoms: _481  and  _482
REMARK  199  A    between atoms: _482  and  _483
REMARK  200  A    between atoms: _483  and  _484
REMARK  201  A    between atoms: _493  and  _495
REMARK  202  A    between atoms: _495  and  _496
REMARK  203  A    between atoms: _495  and  _498
REMARK  204  A    between atoms: _498  and  _499
REMARK                            x       y       z     vdW  Elec       q    Type
REMARK                         _______ _______ _______ _____ _____    ______ ____
ROOT
ATOM      1  O   HOH     1      13.312  44.106  18.143  0.00  0.00    +0.000 OA
ENDROOT
TORSDOF 0
REMARK  Name = ../refined-set-2016/2qd7/2qd7_pocket.pdb
REMARK  204 active torsions:
REMARK  status: ('A' for Active; 'I' for Inactive)
REMARK    1  A    between atoms: _1  and  _3
REMARK    2  A    between atoms: _3  and  _4
REMARK    3  A    between atoms: _3  and  _6
REMARK    4  A    between atoms: _6  and  _7
REMARK    5  A    between atoms: _7  and  _8
REMARK    6  A    between atoms: _8  and  _9
REMARK    7  A    between atoms: _18  and  _20
REMARK    8  A    between atoms: _20  and  _21
REMARK    9  A    between atoms: _20  and  _23
REMARK   10  A    between atoms: _23  and  _24
REMARK   11  A    between atoms: _27  and  _29
REMARK   12  A    between atoms: _29  and  _30
REMARK   13  A    between atoms: _29  and  _32
REMARK   14  A    between atoms: _32  and  _33
REMARK   15  A    between atoms: _36  and  _38
REMARK   16  A    between atoms: _38  and  _39
REMARK   17  A    between atoms: _38  and  _41
REMARK   18  A    between atoms: _41  and  _42
REMARK   19  A    between atoms: _45  and  _47
REMARK   20  A    between atoms: _47  and  _48
REMARK   21  A    between atoms: _47  and  _50
REMARK   22  A    between atoms: _50  and  _51
REMARK   23  A    between atoms: _54  and  _56
REMARK   24  A    between atoms: _56  and  _57
REMARK   25  A    between atoms: _59  and  _61
REMARK   26  A    between atoms: _61  and  _62
REMARK   27  A    between atoms: _65  and  _67
REMARK   28  A    between atoms: _67  and  _68
REMARK   29  A    between atoms: _67  and  _70
REMARK   30  A    between atoms: _70  and  _71
REMARK   31  A    between atoms: _74  and  _76
REMARK   32  A    between atoms: _76  and  _77
REMARK   33  A    between atoms: _76  and  _79
REMARK   34  A    between atoms: _79  and  _80
REMARK   35  A    between atoms: _83  and  _85
REMARK   36  A    between atoms: _85  and  _86
REMARK   37  A    between atoms: _85  and  _88
REMARK   38  A    between atoms: _88  and  _89
REMARK   39  A    between atoms: _92  and  _94
REMARK   40  A    between atoms: _94  and  _95
REMARK   41  A    between atoms: _94  and  _97
REMARK   42  A    between atoms: _100  and  _102
REMARK   43  A    between atoms: _102  and  _103
REMARK   44  A    between atoms: _102  and  _105
REMARK   45  A    between atoms: _105  and  _106
REMARK   46  A    between atoms: _106  and  _107
REMARK   47  A    between atoms: _107  and  _108
REMARK   48  A    between atoms: _108  and  _109
REMARK   49  A    between atoms: _113  and  _115
REMARK   50  A    between atoms: _115  and  _116
REMARK   51  A    between atoms: _115  and  _118
REMARK   52  A    between atoms: _118  and  _119
REMARK   53  A    between atoms: _119  and  _120
REMARK   54  A    between atoms: _122  and  _124
REMARK   55  A    between atoms: _124  and  _125
REMARK   56  A    between atoms: _124  and  _127
REMARK   57  A    between atoms: _127  and  _128
REMARK   58  A    between atoms: _131  and  _133
REMARK   59  A    between atoms: _133  and  _134
REMARK   60  A    between atoms: _136  and  _138
REMARK   61  A    between atoms: _138  and  _139
REMARK   62  A    between atoms: _141  and  _143
REMARK   63  A    between atoms: _143  and  _144
REMARK   64  A    between atoms: _143  and  _146
REMARK   65  A    between atoms: _146  and  _147
REMARK   66  A    between atoms: _150  and  _152
REMARK   67  A    between atoms: _152  and  _153
REMARK   68  A    between atoms: _155  and  _157
REMARK   69  A    between atoms: _157  and  _158
REMARK   70  A    between atoms: _160  and  _162
REMARK   71  A    between atoms: _162  and  _163
REMARK   72  A    between atoms: _162  and  _165
REMARK   73  A    between atoms: _165  and  _166
REMARK   74  A    between atoms: _172  and  _174
REMARK   75  A    between atoms: _174  and  _175
REMARK   76  A    between atoms: _174  and  _177
REMARK   77  A    between atoms: _177  and  _178
REMARK   78  A    between atoms: _181  and  _183
REMARK   79  A    between atoms: _183  and  _184
REMARK   80  A    between atoms: _183  and  _186
REMARK   81  A    between atoms: _186  and  _187
REMARK   82  A    between atoms: _190  and  _192
REMARK   83  A    between atoms: _192  and  _193
REMARK   84  A    between atoms: _192  and  _195
REMARK   85  A    between atoms: _195  and  _196
REMARK   86  A    between atoms: _200  and  _201
REMARK   87  A    between atoms: _206  and  _208
REMARK   88  A    between atoms: _208  and  _209
REMARK   89  A    between atoms: _212  and  _214
REMARK   90  A    between atoms: _214  and  _215
REMARK   91  A    between atoms: _214  and  _217
REMARK   92  A    between atoms: _217  and  _218
REMARK   93  A    between atoms: _223  and  _225
REMARK   94  A    between atoms: _225  and  _226
REMARK   95  A    between atoms: _225  and  _228
REMARK   96  A    between atoms: _228  and  _229
REMARK   97  A    between atoms: _232  and  _234
REMARK   98  A    between atoms: _234  and  _235
REMARK   99  A    between atoms: _234  and  _237
REMARK  100  A    between atoms: _237  and  _238
REMARK  101  A    between atoms: _241  and  _243
REMARK  102  A    between atoms: _243  and  _244
REMARK  103  A    between atoms: _246  and  _248
REMARK  104  A    between atoms: _248  and  _249
REMARK  105  A    between atoms: _248  and  _251
REMARK  106  A    between atoms: _251  and  _252
REMARK  107  A    between atoms: _252  and  _253
REMARK  108  A    between atoms: _253  and  _254
REMARK  109  A    between atoms: _263  and  _265
REMARK  110  A    between atoms: _265  and  _266
REMARK  111  A    between atoms: _265  and  _268
REMARK  112  A    between atoms: _268  and  _269
REMARK  113  A    between atoms: _274  and  _276
REMARK  114  A    between atoms: _276  and  _277
REMARK  115  A    between atoms: _276  and  _279
REMARK  116  A    between atoms: _279  and  _280
REMARK  117  A    between atoms: _280  and  _281
REMARK  118  A    between atoms: _281  and  _282
REMARK  119  A    between atoms: _291  and  _293
REMARK  120  A    between atoms: _293  and  _294
REMARK  121  A    between atoms: _293  and  _296
REMARK  122  A    between atoms: _296  and  _297
REMARK  123  A    between atoms: _300  and  _302
REMARK  124  A    between atoms: _302  and  _303
REMARK  125  A    between atoms: _302  and  _305
REMARK  126  A    between atoms: _305  and  _306
REMARK  127  A    between atoms: _309  and  _311
REMARK  128  A    between atoms: _311  and  _312
REMARK  129  A    between atoms: _311  and  _314
REMARK  130  A    between atoms: _314  and  _315
REMARK  131  A    between atoms: _318  and  _320
REMARK  132  A    between atoms: _320  and  _321
REMARK  133  A    between atoms: _320  and  _323
REMARK  134  A    between atoms: _323  and  _324
REMARK  135  A    between atoms: _327  and  _329
REMARK  136  A    between atoms: _329  and  _330
REMARK  137  A    between atoms: _332  and  _334
REMARK  138  A    between atoms: _334  and  _335
REMARK  139  A    between atoms: _338  and  _340
REMARK  140  A    between atoms: _340  and  _341
REMARK  141  A    between atoms: _340  and  _343
REMARK  142  A    between atoms: _343  and  _344
REMARK  143  A    between atoms: _347  and  _349
REMARK  144  A    between atoms: _349  and  _350
REMARK  145  A    between atoms: _349  and  _352
REMARK  146  A    between atoms: _352  and  _353
REMARK  147  A    between atoms: _356  and  _358
REMARK  148  A    between atoms: _358  and  _359
REMARK  149  A    between atoms: _358  and  _361
REMARK  150  A    between atoms: _361  and  _362
REMARK  151  A    between atoms: _365  and  _367
REMARK  152  A    between atoms: _367  and  _368
REMARK  153  A    between atoms: _367  and  _370
REMARK  154  A    between atoms: _373  and  _375
REMARK  155  A    between atoms: _375  and  _376
REMARK  156  A    between atoms: _375  and  _378
REMARK  157  A    between atoms: _378  and  _379
REMARK  158  A    between atoms: _382  and  _384
REMARK  159  A    between atoms: _384  and  _385
REMARK  160  A    between atoms: _387  and  _389
REMARK  161  A    between atoms: _389  and  _390
REMARK  162  A    between atoms: _392  and  _394
REMARK  163  A    between atoms: _394  and  _395
REMARK  164  A    between atoms: _394  and  _397
REMARK  165  A    between atoms: _397  and  _398
REMARK  166  A    between atoms: _401  and  _403
REMARK  167  A    between atoms: _403  and  _404
REMARK  168  A    between atoms: _406  and  _408
REMARK  169  A    between atoms: _408  and  _409
REMARK  170  A    between atoms: _411  and  _413
REMARK  171  A    between atoms: _413  and  _414
REMARK  172  A    between atoms: _413  and  _416
REMARK  173  A    between atoms: _416  and  _417
REMARK  174  A    between atoms: _420  and  _422
REMARK  175  A    between atoms: _422  and  _423
REMARK  176  A    between atoms: _422  and  _425
REMARK  177  A    between atoms: _425  and  _426
REMARK  178  A    between atoms: _430  and  _431
REMARK  179  A    between atoms: _436  and  _438
REMARK  180  A    between atoms: _438  and  _439
REMARK  181  A    between atoms: _442  and  _444
REMARK  182  A    between atoms: _444  and  _445
REMARK  183  A    between atoms: _444  and  _447
REMARK  184  A    between atoms: _447  and  _448
REMARK  185  A    between atoms: _453  and  _455
REMARK  186  A    between atoms: _455  and  _456
REMARK  187  A    between atoms: _455  and  _458
REMARK  188  A    between atoms: _458  and  _459
REMARK  189  A    between atoms: _462  and  _464
REMARK  190  A    between atoms: _464  and  _465
REMARK  191  A    between atoms: _464  and  _467
REMARK  192  A    between atoms: _467  and  _468
REMARK  193  A    between atoms: _471  and  _473
REMARK  194  A    between atoms: _473  and  _474
REMARK  195  A    between atoms: _476  and  _478
REMARK  196  A    between atoms: _478  and  _479
REMARK  197  A    between atoms: _478  and  _481
REMARK  198  A    between atoms: _481  and  _482
REMARK  199  A    between atoms: _482  and  _483
REMARK  200  A    between atoms: _483  and  _484
REMARK  201  A    between atoms: _493  and  _495
REMARK  202  A    between atoms: _495  and  _496
REMARK  203  A    between atoms: _495  and  _498
REMARK  204  A    between atoms: _498  and  _499
REMARK                            x       y       z     vdW  Elec       q    Type
REMARK                         _______ _______ _______ _____ _____    ______ ____
ROOT
ATOM      1  O   HOH     1      17.212  22.767  11.804  0.00  0.00    +0.000 OA
ENDROOT
TORSDOF 0
REMARK  Name = ../refined-set-2016/2qd7/2qd7_pocket.pdb
REMARK  204 active torsions:
REMARK  status: ('A' for Active; 'I' for Inactive)
REMARK    1  A    between atoms: _1  and  _3
REMARK    2  A    between atoms: _3  and  _4
REMARK    3  A    between atoms: _3  and  _6
REMARK    4  A    between atoms: _6  and  _7
REMARK    5  A    between atoms: _7  and  _8
REMARK    6  A    between atoms: _8  and  _9
REMARK    7  A    between atoms: _18  and  _20
REMARK    8  A    between atoms: _20  and  _21
REMARK    9  A    between atoms: _20  and  _23
REMARK   10  A    between atoms: _23  and  _24
REMARK   11  A    between atoms: _27  and  _29
REMARK   12  A    between atoms: _29  and  _30
REMARK   13  A    between atoms: _29  and  _32
REMARK   14  A    between atoms: _32  and  _33
REMARK   15  A    between atoms: _36  and  _38
REMARK   16  A    between atoms: _38  and  _39
REMARK   17  A    between atoms: _38  and  _41
REMARK   18  A    between atoms: _41  and  _42
REMARK   19  A    between atoms: _45  and  _47
REMARK   20  A    between atoms: _47  and  _48
REMARK   21  A    between atoms: _47  and  _50
REMARK   22  A    between atoms: _50  and  _51
REMARK   23  A    between atoms: _54  and  _56
REMARK   24  A    between atoms: _56  and  _57
REMARK   25  A    between atoms: _59  and  _61
REMARK   26  A    between atoms: _61  and  _62
REMARK   27  A    between atoms: _65  and  _67
REMARK   28  A    between atoms: _67  and  _68
REMARK   29  A    between atoms: _67  and  _70
REMARK   30  A    between atoms: _70  and  _71
REMARK   31  A    between atoms: _74  and  _76
REMARK   32  A    between atoms: _76  and  _77
REMARK   33  A    between atoms: _76  and  _79
REMARK   34  A    between atoms: _79  and  _80
REMARK   35  A    between atoms: _83  and  _85
REMARK   36  A    between atoms: _85  and  _86
REMARK   37  A    between atoms: _85  and  _88
REMARK   38  A    between atoms: _88  and  _89
REMARK   39  A    between atoms: _92  and  _94
REMARK   40  A    between atoms: _94  and  _95
REMARK   41  A    between atoms: _94  and  _97
REMARK   42  A    between atoms: _100  and  _102
REMARK   43  A    between atoms: _102  and  _103
REMARK   44  A    between atoms: _102  and  _105
REMARK   45  A    between atoms: _105  and  _106
REMARK   46  A    between atoms: _106  and  _107
REMARK   47  A    between atoms: _107  and  _108
REMARK   48  A    between atoms: _108  and  _109
REMARK   49  A    between atoms: _113  and  _115
REMARK   50  A    between atoms: _115  and  _116
REMARK   51  A    between atoms: _115  and  _118
REMARK   52  A    between atoms: _118  and  _119
REMARK   53  A    between atoms: _119  and  _120
REMARK   54  A    between atoms: _122  and  _124
REMARK   55  A    between atoms: _124  and  _125
REMARK   56  A    between atoms: _124  and  _127
REMARK   57  A    between atoms: _127  and  _128
REMARK   58  A    between atoms: _131  and  _133
REMARK   59  A    between atoms: _133  and  _134
REMARK   60  A    between atoms: _136  and  _138
REMARK   61  A    between atoms: _138  and  _139
REMARK   62  A    between atoms: _141  and  _143
REMARK   63  A    between atoms: _143  and  _144
REMARK   64  A    between atoms: _143  and  _146
REMARK   65  A    between atoms: _146  and  _147
REMARK   66  A    between atoms: _150  and  _152
REMARK   67  A    between atoms: _152  and  _153
REMARK   68  A    between atoms: _155  and  _157
REMARK   69  A    between atoms: _157  and  _158
REMARK   70  A    between atoms: _160  and  _162
REMARK   71  A    between atoms: _162  and  _163
REMARK   72  A    between atoms: _162  and  _165
REMARK   73  A    between atoms: _165  and  _166
REMARK   74  A    between atoms: _172  and  _174
REMARK   75  A    between atoms: _174  and  _175
REMARK   76  A    between atoms: _174  and  _177
REMARK   77  A    between atoms: _177  and  _178
REMARK   78  A    between atoms: _181  and  _183
REMARK   79  A    between atoms: _183  and  _184
REMARK   80  A    between atoms: _183  and  _186
REMARK   81  A    between atoms: _186  and  _187
REMARK   82  A    between atoms: _190  and  _192
REMARK   83  A    between atoms: _192  and  _193
REMARK   84  A    between atoms: _192  and  _195
REMARK   85  A    between atoms: _195  and  _196
REMARK   86  A    between atoms: _200  and  _201
REMARK   87  A    between atoms: _206  and  _208
REMARK   88  A    between atoms: _208  and  _209
REMARK   89  A    between atoms: _212  and  _214
REMARK   90  A    between atoms: _214  and  _215
REMARK   91  A    between atoms: _214  and  _217
REMARK   92  A    between atoms: _217  and  _218
REMARK   93  A    between atoms: _223  and  _225
REMARK   94  A    between atoms: _225  and  _226
REMARK   95  A    between atoms: _225  and  _228
REMARK   96  A    between atoms: _228  and  _229
REMARK   97  A    between atoms: _232  and  _234
REMARK   98  A    between atoms: _234  and  _235
REMARK   99  A    between atoms: _234  and  _237
REMARK  100  A    between atoms: _237  and  _238
REMARK  101  A    between atoms: _241  and  _243
REMARK  102  A    between atoms: _243  and  _244
REMARK  103  A    between atoms: _246  and  _248
REMARK  104  A    between atoms: _248  and  _249
REMARK  105  A    between atoms: _248  and  _251
REMARK  106  A    between atoms: _251  and  _252
REMARK  107  A    between atoms: _252  and  _253
REMARK  108  A    between atoms: _253  and  _254
REMARK  109  A    between atoms: _263  and  _265
REMARK  110  A    between atoms: _265  and  _266
REMARK  111  A    between atoms: _265  and  _268
REMARK  112  A    between atoms: _268  and  _269
REMARK  113  A    between atoms: _274  and  _276
REMARK  114  A    between atoms: _276  and  _277
REMARK  115  A    between atoms: _276  and  _279
REMARK  116  A    between atoms: _279  and  _280
REMARK  117  A    between atoms: _280  and  _281
REMARK  118  A    between atoms: _281  and  _282
REMARK  119  A    between atoms: _291  and  _293
REMARK  120  A    between atoms: _293  and  _294
REMARK  121  A    between atoms: _293  and  _296
REMARK  122  A    between atoms: _296  and  _297
REMARK  123  A    between atoms: _300  and  _302
REMARK  124  A    between atoms: _302  and  _303
REMARK  125  A    between atoms: _302  and  _305
REMARK  126  A    between atoms: _305  and  _306
REMARK  127  A    between atoms: _309  and  _311
REMARK  128  A    between atoms: _311  and  _312
REMARK  129  A    between atoms: _311  and  _314
REMARK  130  A    between atoms: _314  and  _315
REMARK  131  A    between atoms: _318  and  _320
REMARK  132  A    between atoms: _320  and  _321
REMARK  133  A    between atoms: _320  and  _323
REMARK  134  A    between atoms: _323  and  _324
REMARK  135  A    between atoms: _327  and  _329
REMARK  136  A    between atoms: _329  and  _330
REMARK  137  A    between atoms: _332  and  _334
REMARK  138  A    between atoms: _334  and  _335
REMARK  139  A    between atoms: _338  and  _340
REMARK  140  A    between atoms: _340  and  _341
REMARK  141  A    between atoms: _340  and  _343
REMARK  142  A    between atoms: _343  and  _344
REMARK  143  A    between atoms: _347  and  _349
REMARK  144  A    between atoms: _349  and  _350
REMARK  145  A    between atoms: _349  and  _352
REMARK  146  A    between atoms: _352  and  _353
REMARK  147  A    between atoms: _356  and  _358
REMARK  148  A    between atoms: _358  and  _359
REMARK  149  A    between atoms: _358  and  _361
REMARK  150  A    between atoms: _361  and  _362
REMARK  151  A    between atoms: _365  and  _367
REMARK  152  A    between atoms: _367  and  _368
REMARK  153  A    between atoms: _367  and  _370
REMARK  154  A    between atoms: _373  and  _375
REMARK  155  A    between atoms: _375  and  _376
REMARK  156  A    between atoms: _375  and  _378
REMARK  157  A    between atoms: _378  and  _379
REMARK  158  A    between atoms: _382  and  _384
REMARK  159  A    between atoms: _384  and  _385
REMARK  160  A    between atoms: _387  and  _389
REMARK  161  A    between atoms: _389  and  _390
REMARK  162  A    between atoms: _392  and  _394
REMARK  163  A    between atoms: _394  and  _395
REMARK  164  A    between atoms: _394  and  _397
REMARK  165  A    between atoms: _397  and  _398
REMARK  166  A    between atoms: _401  and  _403
REMARK  167  A    between atoms: _403  and  _404
REMARK  168  A    between atoms: _406  and  _408
REMARK  169  A    between atoms: _408  and  _409
REMARK  170  A    between atoms: _411  and  _413
REMARK  171  A    between atoms: _413  and  _414
REMARK  172  A    between atoms: _413  and  _416
REMARK  173  A    between atoms: _416  and  _417
REMARK  174  A    between atoms: _420  and  _422
REMARK  175  A    between atoms: _422  and  _423
REMARK  176  A    between atoms: _422  and  _425
REMARK  177  A    between atoms: _425  and  _426
REMARK  178  A    between atoms: _430  and  _431
REMARK  179  A    between atoms: _436  and  _438
REMARK  180  A    between atoms: _438  and  _439
REMARK  181  A    between atoms: _442  and  _444
REMARK  182  A    between atoms: _444  and  _445
REMARK  183  A    between atoms: _444  and  _447
REMARK  184  A    between atoms: _447  and  _448
REMARK  185  A    between atoms: _453  and  _455
REMARK  186  A    between atoms: _455  and  _456
REMARK  187  A    between atoms: _455  and  _458
REMARK  188  A    between atoms: _458  and  _459
REMARK  189  A    between atoms: _462  and  _464
REMARK  190  A    between atoms: _464  and  _465
REMARK  191  A    between atoms: _464  and  _467
REMARK  192  A    between atoms: _467  and  _468
REMARK  193  A    between atoms: _471  and  _473
REMARK  194  A    between atoms: _473  and  _474
REMARK  195  A    between atoms: _476  and  _478
REMARK  196  A    between atoms: _478  and  _479
REMARK  197  A    between atoms: _478  and  _481
REMARK  198  A    between atoms: _481  and  _482
REMARK  199  A    between atoms: _482  and  _483
REMARK  200  A    between atoms: _483  and  _484
REMARK  201  A    between atoms: _493  and  _495
REMARK  202  A    between atoms: _495  and  _496
REMARK  203  A    between atoms: _495  and  _498
REMARK  204  A    between atoms: _498  and  _499
REMARK                            x       y       z     vdW  Elec       q    Type
REMARK                         _______ _______ _______ _____ _____    ______ ____
ROOT
ATOM      1  O   HOH     1      10.560  36.814  23.558  0.00  0.00    +0.000 OA
ENDROOT
TORSDOF 0
REMARK  Name = ../refined-set-2016/2qd7/2qd7_pocket.pdb
REMARK  204 active torsions:
REMARK  status: ('A' for Active; 'I' for Inactive)
REMARK    1  A    between atoms: _1  and  _3
REMARK    2  A    between atoms: _3  and  _4
REMARK    3  A    between atoms: _3  and  _6
REMARK    4  A    between atoms: _6  and  _7
REMARK    5  A    between atoms: _7  and  _8
REMARK    6  A    between atoms: _8  and  _9
REMARK    7  A    between atoms: _18  and  _20
REMARK    8  A    between atoms: _20  and  _21
REMARK    9  A    between atoms: _20  and  _23
REMARK   10  A    between atoms: _23  and  _24
REMARK   11  A    between atoms: _27  and  _29
REMARK   12  A    between atoms: _29  and  _30
REMARK   13  A    between atoms: _29  and  _32
REMARK   14  A    between atoms: _32  and  _33
REMARK   15  A    between atoms: _36  and  _38
REMARK   16  A    between atoms: _38  and  _39
REMARK   17  A    between atoms: _38  and  _41
REMARK   18  A    between atoms: _41  and  _42
REMARK   19  A    between atoms: _45  and  _47
REMARK   20  A    between atoms: _47  and  _48
REMARK   21  A    between atoms: _47  and  _50
REMARK   22  A    between atoms: _50  and  _51
REMARK   23  A    between atoms: _54  and  _56
REMARK   24  A    between atoms: _56  and  _57
REMARK   25  A    between atoms: _59  and  _61
REMARK   26  A    between atoms: _61  and  _62
REMARK   27  A    between atoms: _65  and  _67
REMARK   28  A    between atoms: _67  and  _68
REMARK   29  A    between atoms: _67  and  _70
REMARK   30  A    between atoms: _70  and  _71
REMARK   31  A    between atoms: _74  and  _76
REMARK   32  A    between atoms: _76  and  _77
REMARK   33  A    between atoms: _76  and  _79
REMARK   34  A    between atoms: _79  and  _80
REMARK   35  A    between atoms: _83  and  _85
REMARK   36  A    between atoms: _85  and  _86
REMARK   37  A    between atoms: _85  and  _88
REMARK   38  A    between atoms: _88  and  _89
REMARK   39  A    between atoms: _92  and  _94
REMARK   40  A    between atoms: _94  and  _95
REMARK   41  A    between atoms: _94  and  _97
REMARK   42  A    between atoms: _100  and  _102
REMARK   43  A    between atoms: _102  and  _103
REMARK   44  A    between atoms: _102  and  _105
REMARK   45  A    between atoms: _105  and  _106
REMARK   46  A    between atoms: _106  and  _107
REMARK   47  A    between atoms: _107  and  _108
REMARK   48  A    between atoms: _108  and  _109
REMARK   49  A    between atoms: _113  and  _115
REMARK   50  A    between atoms: _115  and  _116
REMARK   51  A    between atoms: _115  and  _118
REMARK   52  A    between atoms: _118  and  _119
REMARK   53  A    between atoms: _119  and  _120
REMARK   54  A    between atoms: _122  and  _124
REMARK   55  A    between atoms: _124  and  _125
REMARK   56  A    between atoms: _124  and  _127
REMARK   57  A    between atoms: _127  and  _128
REMARK   58  A    between atoms: _131  and  _133
REMARK   59  A    between atoms: _133  and  _134
REMARK   60  A    between atoms: _136  and  _138
REMARK   61  A    between atoms: _138  and  _139
REMARK   62  A    between atoms: _141  and  _143
REMARK   63  A    between atoms: _143  and  _144
REMARK   64  A    between atoms: _143  and  _146
REMARK   65  A    between atoms: _146  and  _147
REMARK   66  A    between atoms: _150  and  _152
REMARK   67  A    between atoms: _152  and  _153
REMARK   68  A    between atoms: _155  and  _157
REMARK   69  A    between atoms: _157  and  _158
REMARK   70  A    between atoms: _160  and  _162
REMARK   71  A    between atoms: _162  and  _163
REMARK   72  A    between atoms: _162  and  _165
REMARK   73  A    between atoms: _165  and  _166
REMARK   74  A    between atoms: _172  and  _174
REMARK   75  A    between atoms: _174  and  _175
REMARK   76  A    between atoms: _174  and  _177
REMARK   77  A    between atoms: _177  and  _178
REMARK   78  A    between atoms: _181  and  _183
REMARK   79  A    between atoms: _183  and  _184
REMARK   80  A    between atoms: _183  and  _186
REMARK   81  A    between atoms: _186  and  _187
REMARK   82  A    between atoms: _190  and  _192
REMARK   83  A    between atoms: _192  and  _193
REMARK   84  A    between atoms: _192  and  _195
REMARK   85  A    between atoms: _195  and  _196
REMARK   86  A    between atoms: _200  and  _201
REMARK   87  A    between atoms: _206  and  _208
REMARK   88  A    between atoms: _208  and  _209
REMARK   89  A    between atoms: _212  and  _214
REMARK   90  A    between atoms: _214  and  _215
REMARK   91  A    between atoms: _214  and  _217
REMARK   92  A    between atoms: _217  and  _218
REMARK   93  A    between atoms: _223  and  _225
REMARK   94  A    between atoms: _225  and  _226
REMARK   95  A    between atoms: _225  and  _228
REMARK   96  A    between atoms: _228  and  _229
REMARK   97  A    between atoms: _232  and  _234
REMARK   98  A    between atoms: _234  and  _235
REMARK   99  A    between atoms: _234  and  _237
REMARK  100  A    between atoms: _237  and  _238
REMARK  101  A    between atoms: _241  and  _243
REMARK  102  A    between atoms: _243  and  _244
REMARK  103  A    between atoms: _246  and  _248
REMARK  104  A    between atoms: _248  and  _249
REMARK  105  A    between atoms: _248  and  _251
REMARK  106  A    between atoms: _251  and  _252
REMARK  107  A    between atoms: _252  and  _253
REMARK  108  A    between atoms: _253  and  _254
REMARK  109  A    between atoms: _263  and  _265
REMARK  110  A    between atoms: _265  and  _266
REMARK  111  A    between atoms: _265  and  _268
REMARK  112  A    between atoms: _268  and  _269
REMARK  113  A    between atoms: _274  and  _276
REMARK  114  A    between atoms: _276  and  _277
REMARK  115  A    between atoms: _276  and  _279
REMARK  116  A    between atoms: _279  and  _280
REMARK  117  A    between atoms: _280  and  _281
REMARK  118  A    between atoms: _281  and  _282
REMARK  119  A    between atoms: _291  and  _293
REMARK  120  A    between atoms: _293  and  _294
REMARK  121  A    between atoms: _293  and  _296
REMARK  122  A    between atoms: _296  and  _297
REMARK  123  A    between atoms: _300  and  _302
REMARK  124  A    between atoms: _302  and  _303
REMARK  125  A    between atoms: _302  and  _305
REMARK  126  A    between atoms: _305  and  _306
REMARK  127  A    between atoms: _309  and  _311
REMARK  128  A    between atoms: _311  and  _312
REMARK  129  A    between atoms: _311  and  _314
REMARK  130  A    between atoms: _314  and  _315
REMARK  131  A    between atoms: _318  and  _320
REMARK  132  A    between atoms: _320  and  _321
REMARK  133  A    between atoms: _320  and  _323
REMARK  134  A    between atoms: _323  and  _324
REMARK  135  A    between atoms: _327  and  _329
REMARK  136  A    between atoms: _329  and  _330
REMARK  137  A    between atoms: _332  and  _334
REMARK  138  A    between atoms: _334  and  _335
REMARK  139  A    between atoms: _338  and  _340
REMARK  140  A    between atoms: _340  and  _341
REMARK  141  A    between atoms: _340  and  _343
REMARK  142  A    between atoms: _343  and  _344
REMARK  143  A    between atoms: _347  and  _349
REMARK  144  A    between atoms: _349  and  _350
REMARK  145  A    between atoms: _349  and  _352
REMARK  146  A    between atoms: _352  and  _353
REMARK  147  A    between atoms: _356  and  _358
REMARK  148  A    between atoms: _358  and  _359
REMARK  149  A    between atoms: _358  and  _361
REMARK  150  A    between atoms: _361  and  _362
REMARK  151  A    between atoms: _365  and  _367
REMARK  152  A    between atoms: _367  and  _368
REMARK  153  A    between atoms: _367  and  _370
REMARK  154  A    between atoms: _373  and  _375
REMARK  155  A    between atoms: _375  and  _376
REMARK  156  A    between atoms: _375  and  _378
REMARK  157  A    between atoms: _378  and  _379
REMARK  158  A    between atoms: _382  and  _384
REMARK  159  A    between atoms: _384  and  _385
REMARK  160  A    between atoms: _387  and  _389
REMARK  161  A    between atoms: _389  and  _390
REMARK  162  A    between atoms: _392  and  _394
REMARK  163  A    between atoms: _394  and  _395
REMARK  164  A    between atoms: _394  and  _397
REMARK  165  A    between atoms: _397  and  _398
REMARK  166  A    between atoms: _401  and  _403
REMARK  167  A    between atoms: _403  and  _404
REMARK  168  A    between atoms: _406  and  _408
REMARK  169  A    between atoms: _408  and  _409
REMARK  170  A    between atoms: _411  and  _413
REMARK  171  A    between atoms: _413  and  _414
REMARK  172  A    between atoms: _413  and  _416
REMARK  173  A    between atoms: _416  and  _417
REMARK  174  A    between atoms: _420  and  _422
REMARK  175  A    between atoms: _422  and  _423
REMARK  176  A    between atoms: _422  and  _425
REMARK  177  A    between atoms: _425  and  _426
REMARK  178  A    between atoms: _430  and  _431
REMARK  179  A    between atoms: _436  and  _438
REMARK  180  A    between atoms: _438  and  _439
REMARK  181  A    between atoms: _442  and  _444
REMARK  182  A    between atoms: _444  and  _445
REMARK  183  A    between atoms: _444  and  _447
REMARK  184  A    between atoms: _447  and  _448
REMARK  185  A    between atoms: _453  and  _455
REMARK  186  A    between atoms: _455  and  _456
REMARK  187  A    between atoms: _455  and  _458
REMARK  188  A    between atoms: _458  and  _459
REMARK  189  A    between atoms: _462  and  _464
REMARK  190  A    between atoms: _464  and  _465
REMARK  191  A    between atoms: _464  and  _467
REMARK  192  A    between atoms: _467  and  _468
REMARK  193  A    between atoms: _471  and  _473
REMARK  194  A    between atoms: _473  and  _474
REMARK  195  A    between atoms: _476  and  _478
REMARK  196  A    between atoms: _478  and  _479
REMARK  197  A    between atoms: _478  and  _481
REMARK  198  A    between atoms: _481  and  _482
REMARK  199  A    between atoms: _482  and  _483
REMARK  200  A    between atoms: _483  and  _484
REMARK  201  A    between atoms: _493  and  _495
REMARK  202  A    between atoms: _495  and  _496
REMARK  203  A    between atoms: _495  and  _498
REMARK  204  A    between atoms: _498  and  _499
REMARK                            x       y       z     vdW  Elec       q    Type
REMARK                         _______ _______ _______ _____ _____    ______ ____
ROOT
ATOM      1  O   HOH     1      14.202  38.563  24.137  0.00  0.00    +0.000 OA
ENDROOT
TORSDOF 0
REMARK  Name = ../refined-set-2016/2qd7/2qd7_pocket.pdb
REMARK  204 active torsions:
REMARK  status: ('A' for Active; 'I' for Inactive)
REMARK    1  A    between atoms: _1  and  _3
REMARK    2  A    between atoms: _3  and  _4
REMARK    3  A    between atoms: _3  and  _6
REMARK    4  A    between atoms: _6  and  _7
REMARK    5  A    between atoms: _7  and  _8
REMARK    6  A    between atoms: _8  and  _9
REMARK    7  A    between atoms: _18  and  _20
REMARK    8  A    between atoms: _20  and  _21
REMARK    9  A    between atoms: _20  and  _23
REMARK   10  A    between atoms: _23  and  _24
REMARK   11  A    between atoms: _27  and  _29
REMARK   12  A    between atoms: _29  and  _30
REMARK   13  A    between atoms: _29  and  _32
REMARK   14  A    between atoms: _32  and  _33
REMARK   15  A    between atoms: _36  and  _38
REMARK   16  A    between atoms: _38  and  _39
REMARK   17  A    between atoms: _38  and  _41
REMARK   18  A    between atoms: _41  and  _42
REMARK   19  A    between atoms: _45  and  _47
REMARK   20  A    between atoms: _47  and  _48
REMARK   21  A    between atoms: _47  and  _50
REMARK   22  A    between atoms: _50  and  _51
REMARK   23  A    between atoms: _54  and  _56
REMARK   24  A    between atoms: _56  and  _57
REMARK   25  A    between atoms: _59  and  _61
REMARK   26  A    between atoms: _61  and  _62
REMARK   27  A    between atoms: _65  and  _67
REMARK   28  A    between atoms: _67  and  _68
REMARK   29  A    between atoms: _67  and  _70
REMARK   30  A    between atoms: _70  and  _71
REMARK   31  A    between atoms: _74  and  _76
REMARK   32  A    between atoms: _76  and  _77
REMARK   33  A    between atoms: _76  and  _79
REMARK   34  A    between atoms: _79  and  _80
REMARK   35  A    between atoms: _83  and  _85
REMARK   36  A    between atoms: _85  and  _86
REMARK   37  A    between atoms: _85  and  _88
REMARK   38  A    between atoms: _88  and  _89
REMARK   39  A    between atoms: _92  and  _94
REMARK   40  A    between atoms: _94  and  _95
REMARK   41  A    between atoms: _94  and  _97
REMARK   42  A    between atoms: _100  and  _102
REMARK   43  A    between atoms: _102  and  _103
REMARK   44  A    between atoms: _102  and  _105
REMARK   45  A    between atoms: _105  and  _106
REMARK   46  A    between atoms: _106  and  _107
REMARK   47  A    between atoms: _107  and  _108
REMARK   48  A    between atoms: _108  and  _109
REMARK   49  A    between atoms: _113  and  _115
REMARK   50  A    between atoms: _115  and  _116
REMARK   51  A    between atoms: _115  and  _118
REMARK   52  A    between atoms: _118  and  _119
REMARK   53  A    between atoms: _119  and  _120
REMARK   54  A    between atoms: _122  and  _124
REMARK   55  A    between atoms: _124  and  _125
REMARK   56  A    between atoms: _124  and  _127
REMARK   57  A    between atoms: _127  and  _128
REMARK   58  A    between atoms: _131  and  _133
REMARK   59  A    between atoms: _133  and  _134
REMARK   60  A    between atoms: _136  and  _138
REMARK   61  A    between atoms: _138  and  _139
REMARK   62  A    between atoms: _141  and  _143
REMARK   63  A    between atoms: _143  and  _144
REMARK   64  A    between atoms: _143  and  _146
REMARK   65  A    between atoms: _146  and  _147
REMARK   66  A    between atoms: _150  and  _152
REMARK   67  A    between atoms: _152  and  _153
REMARK   68  A    between atoms: _155  and  _157
REMARK   69  A    between atoms: _157  and  _158
REMARK   70  A    between atoms: _160  and  _162
REMARK   71  A    between atoms: _162  and  _163
REMARK   72  A    between atoms: _162  and  _165
REMARK   73  A    between atoms: _165  and  _166
REMARK   74  A    between atoms: _172  and  _174
REMARK   75  A    between atoms: _174  and  _175
REMARK   76  A    between atoms: _174  and  _177
REMARK   77  A    between atoms: _177  and  _178
REMARK   78  A    between atoms: _181  and  _183
REMARK   79  A    between atoms: _183  and  _184
REMARK   80  A    between atoms: _183  and  _186
REMARK   81  A    between atoms: _186  and  _187
REMARK   82  A    between atoms: _190  and  _192
REMARK   83  A    between atoms: _192  and  _193
REMARK   84  A    between atoms: _192  and  _195
REMARK   85  A    between atoms: _195  and  _196
REMARK   86  A    between atoms: _200  and  _201
REMARK   87  A    between atoms: _206  and  _208
REMARK   88  A    between atoms: _208  and  _209
REMARK   89  A    between atoms: _212  and  _214
REMARK   90  A    between atoms: _214  and  _215
REMARK   91  A    between atoms: _214  and  _217
REMARK   92  A    between atoms: _217  and  _218
REMARK   93  A    between atoms: _223  and  _225
REMARK   94  A    between atoms: _225  and  _226
REMARK   95  A    between atoms: _225  and  _228
REMARK   96  A    between atoms: _228  and  _229
REMARK   97  A    between atoms: _232  and  _234
REMARK   98  A    between atoms: _234  and  _235
REMARK   99  A    between atoms: _234  and  _237
REMARK  100  A    between atoms: _237  and  _238
REMARK  101  A    between atoms: _241  and  _243
REMARK  102  A    between atoms: _243  and  _244
REMARK  103  A    between atoms: _246  and  _248
REMARK  104  A    between atoms: _248  and  _249
REMARK  105  A    between atoms: _248  and  _251
REMARK  106  A    between atoms: _251  and  _252
REMARK  107  A    between atoms: _252  and  _253
REMARK  108  A    between atoms: _253  and  _254
REMARK  109  A    between atoms: _263  and  _265
REMARK  110  A    between atoms: _265  and  _266
REMARK  111  A    between atoms: _265  and  _268
REMARK  112  A    between atoms: _268  and  _269
REMARK  113  A    between atoms: _274  and  _276
REMARK  114  A    between atoms: _276  and  _277
REMARK  115  A    between atoms: _276  and  _279
REMARK  116  A    between atoms: _279  and  _280
REMARK  117  A    between atoms: _280  and  _281
REMARK  118  A    between atoms: _281  and  _282
REMARK  119  A    between atoms: _291  and  _293
REMARK  120  A    between atoms: _293  and  _294
REMARK  121  A    between atoms: _293  and  _296
REMARK  122  A    between atoms: _296  and  _297
REMARK  123  A    between atoms: _300  and  _302
REMARK  124  A    between atoms: _302  and  _303
REMARK  125  A    between atoms: _302  and  _305
REMARK  126  A    between atoms: _305  and  _306
REMARK  127  A    between atoms: _309  and  _311
REMARK  128  A    between atoms: _311  and  _312
REMARK  129  A    between atoms: _311  and  _314
REMARK  130  A    between atoms: _314  and  _315
REMARK  131  A    between atoms: _318  and  _320
REMARK  132  A    between atoms: _320  and  _321
REMARK  133  A    between atoms: _320  and  _323
REMARK  134  A    between atoms: _323  and  _324
REMARK  135  A    between atoms: _327  and  _329
REMARK  136  A    between atoms: _329  and  _330
REMARK  137  A    between atoms: _332  and  _334
REMARK  138  A    between atoms: _334  and  _335
REMARK  139  A    between atoms: _338  and  _340
REMARK  140  A    between atoms: _340  and  _341
REMARK  141  A    between atoms: _340  and  _343
REMARK  142  A    between atoms: _343  and  _344
REMARK  143  A    between atoms: _347  and  _349
REMARK  144  A    between atoms: _349  and  _350
REMARK  145  A    between atoms: _349  and  _352
REMARK  146  A    between atoms: _352  and  _353
REMARK  147  A    between atoms: _356  and  _358
REMARK  148  A    between atoms: _358  and  _359
REMARK  149  A    between atoms: _358  and  _361
REMARK  150  A    between atoms: _361  and  _362
REMARK  151  A    between atoms: _365  and  _367
REMARK  152  A    between atoms: _367  and  _368
REMARK  153  A    between atoms: _367  and  _370
REMARK  154  A    between atoms: _373  and  _375
REMARK  155  A    between atoms: _375  and  _376
REMARK  156  A    between atoms: _375  and  _378
REMARK  157  A    between atoms: _378  and  _379
REMARK  158  A    between atoms: _382  and  _384
REMARK  159  A    between atoms: _384  and  _385
REMARK  160  A    between atoms: _387  and  _389
REMARK  161  A    between atoms: _389  and  _390
REMARK  162  A    between atoms: _392  and  _394
REMARK  163  A    between atoms: _394  and  _395
REMARK  164  A    between atoms: _394  and  _397
REMARK  165  A    between atoms: _397  and  _398
REMARK  166  A    between atoms: _401  and  _403
REMARK  167  A    between atoms: _403  and  _404
REMARK  168  A    between atoms: _406  and  _408
REMARK  169  A    between atoms: _408  and  _409
REMARK  170  A    between atoms: _411  and  _413
REMARK  171  A    between atoms: _413  and  _414
REMARK  172  A    between atoms: _413  and  _416
REMARK  173  A    between atoms: _416  and  _417
REMARK  174  A    between atoms: _420  and  _422
REMARK  175  A    between atoms: _422  and  _423
REMARK  176  A    between atoms: _422  and  _425
REMARK  177  A    between atoms: _425  and  _426
REMARK  178  A    between atoms: _430  and  _431
REMARK  179  A    between atoms: _436  and  _438
REMARK  180  A    between atoms: _438  and  _439
REMARK  181  A    between atoms: _442  and  _444
REMARK  182  A    between atoms: _444  and  _445
REMARK  183  A    between atoms: _444  and  _447
REMARK  184  A    between atoms: _447  and  _448
REMARK  185  A    between atoms: _453  and  _455
REMARK  186  A    between atoms: _455  and  _456
REMARK  187  A    between atoms: _455  and  _458
REMARK  188  A    between atoms: _458  and  _459
REMARK  189  A    between atoms: _462  and  _464
REMARK  190  A    between atoms: _464  and  _465
REMARK  191  A    between atoms: _464  and  _467
REMARK  192  A    between atoms: _467  and  _468
REMARK  193  A    between atoms: _471  and  _473
REMARK  194  A    between atoms: _473  and  _474
REMARK  195  A    between atoms: _476  and  _478
REMARK  196  A    between atoms: _478  and  _479
REMARK  197  A    between atoms: _478  and  _481
REMARK  198  A    between atoms: _481  and  _482
REMARK  199  A    between atoms: _482  and  _483
REMARK  200  A    between atoms: _483  and  _484
REMARK  201  A    between atoms: _493  and  _495
REMARK  202  A    between atoms: _495  and  _496
REMARK  203  A    between atoms: _495  and  _498
REMARK  204  A    between atoms: _498  and  _499
REMARK                            x       y       z     vdW  Elec       q    Type
REMARK                         _______ _______ _______ _____ _____    ______ ____
ROOT
ATOM      1  O   HOH     1      20.331  40.850  15.861  0.00  0.00    +0.000 OA
ENDROOT
TORSDOF 0
REMARK  Name = ../refined-set-2016/2qd7/2qd7_pocket.pdb
REMARK  204 active torsions:
REMARK  status: ('A' for Active; 'I' for Inactive)
REMARK    1  A    between atoms: _1  and  _3
REMARK    2  A    between atoms: _3  and  _4
REMARK    3  A    between atoms: _3  and  _6
REMARK    4  A    between atoms: _6  and  _7
REMARK    5  A    between atoms: _7  and  _8
REMARK    6  A    between atoms: _8  and  _9
REMARK    7  A    between atoms: _18  and  _20
REMARK    8  A    between atoms: _20  and  _21
REMARK    9  A    between atoms: _20  and  _23
REMARK   10  A    between atoms: _23  and  _24
REMARK   11  A    between atoms: _27  and  _29
REMARK   12  A    between atoms: _29  and  _30
REMARK   13  A    between atoms: _29  and  _32
REMARK   14  A    between atoms: _32  and  _33
REMARK   15  A    between atoms: _36  and  _38
REMARK   16  A    between atoms: _38  and  _39
REMARK   17  A    between atoms: _38  and  _41
REMARK   18  A    between atoms: _41  and  _42
REMARK   19  A    between atoms: _45  and  _47
REMARK   20  A    between atoms: _47  and  _48
REMARK   21  A    between atoms: _47  and  _50
REMARK   22  A    between atoms: _50  and  _51
REMARK   23  A    between atoms: _54  and  _56
REMARK   24  A    between atoms: _56  and  _57
REMARK   25  A    between atoms: _59  and  _61
REMARK   26  A    between atoms: _61  and  _62
REMARK   27  A    between atoms: _65  and  _67
REMARK   28  A    between atoms: _67  and  _68
REMARK   29  A    between atoms: _67  and  _70
REMARK   30  A    between atoms: _70  and  _71
REMARK   31  A    between atoms: _74  and  _76
REMARK   32  A    between atoms: _76  and  _77
REMARK   33  A    between atoms: _76  and  _79
REMARK   34  A    between atoms: _79  and  _80
REMARK   35  A    between atoms: _83  and  _85
REMARK   36  A    between atoms: _85  and  _86
REMARK   37  A    between atoms: _85  and  _88
REMARK   38  A    between atoms: _88  and  _89
REMARK   39  A    between atoms: _92  and  _94
REMARK   40  A    between atoms: _94  and  _95
REMARK   41  A    between atoms: _94  and  _97
REMARK   42  A    between atoms: _100  and  _102
REMARK   43  A    between atoms: _102  and  _103
REMARK   44  A    between atoms: _102  and  _105
REMARK   45  A    between atoms: _105  and  _106
REMARK   46  A    between atoms: _106  and  _107
REMARK   47  A    between atoms: _107  and  _108
REMARK   48  A    between atoms: _108  and  _109
REMARK   49  A    between atoms: _113  and  _115
REMARK   50  A    between atoms: _115  and  _116
REMARK   51  A    between atoms: _115  and  _118
REMARK   52  A    between atoms: _118  and  _119
REMARK   53  A    between atoms: _119  and  _120
REMARK   54  A    between atoms: _122  and  _124
REMARK   55  A    between atoms: _124  and  _125
REMARK   56  A    between atoms: _124  and  _127
REMARK   57  A    between atoms: _127  and  _128
REMARK   58  A    between atoms: _131  and  _133
REMARK   59  A    between atoms: _133  and  _134
REMARK   60  A    between atoms: _136  and  _138
REMARK   61  A    between atoms: _138  and  _139
REMARK   62  A    between atoms: _141  and  _143
REMARK   63  A    between atoms: _143  and  _144
REMARK   64  A    between atoms: _143  and  _146
REMARK   65  A    between atoms: _146  and  _147
REMARK   66  A    between atoms: _150  and  _152
REMARK   67  A    between atoms: _152  and  _153
REMARK   68  A    between atoms: _155  and  _157
REMARK   69  A    between atoms: _157  and  _158
REMARK   70  A    between atoms: _160  and  _162
REMARK   71  A    between atoms: _162  and  _163
REMARK   72  A    between atoms: _162  and  _165
REMARK   73  A    between atoms: _165  and  _166
REMARK   74  A    between atoms: _172  and  _174
REMARK   75  A    between atoms: _174  and  _175
REMARK   76  A    between atoms: _174  and  _177
REMARK   77  A    between atoms: _177  and  _178
REMARK   78  A    between atoms: _181  and  _183
REMARK   79  A    between atoms: _183  and  _184
REMARK   80  A    between atoms: _183  and  _186
REMARK   81  A    between atoms: _186  and  _187
REMARK   82  A    between atoms: _190  and  _192
REMARK   83  A    between atoms: _192  and  _193
REMARK   84  A    between atoms: _192  and  _195
REMARK   85  A    between atoms: _195  and  _196
REMARK   86  A    between atoms: _200  and  _201
REMARK   87  A    between atoms: _206  and  _208
REMARK   88  A    between atoms: _208  and  _209
REMARK   89  A    between atoms: _212  and  _214
REMARK   90  A    between atoms: _214  and  _215
REMARK   91  A    between atoms: _214  and  _217
REMARK   92  A    between atoms: _217  and  _218
REMARK   93  A    between atoms: _223  and  _225
REMARK   94  A    between atoms: _225  and  _226
REMARK   95  A    between atoms: _225  and  _228
REMARK   96  A    between atoms: _228  and  _229
REMARK   97  A    between atoms: _232  and  _234
REMARK   98  A    between atoms: _234  and  _235
REMARK   99  A    between atoms: _234  and  _237
REMARK  100  A    between atoms: _237  and  _238
REMARK  101  A    between atoms: _241  and  _243
REMARK  102  A    between atoms: _243  and  _244
REMARK  103  A    between atoms: _246  and  _248
REMARK  104  A    between atoms: _248  and  _249
REMARK  105  A    between atoms: _248  and  _251
REMARK  106  A    between atoms: _251  and  _252
REMARK  107  A    between atoms: _252  and  _253
REMARK  108  A    between atoms: _253  and  _254
REMARK  109  A    between atoms: _263  and  _265
REMARK  110  A    between atoms: _265  and  _266
REMARK  111  A    between atoms: _265  and  _268
REMARK  112  A    between atoms: _268  and  _269
REMARK  113  A    between atoms: _274  and  _276
REMARK  114  A    between atoms: _276  and  _277
REMARK  115  A    between atoms: _276  and  _279
REMARK  116  A    between atoms: _279  and  _280
REMARK  117  A    between atoms: _280  and  _281
REMARK  118  A    between atoms: _281  and  _282
REMARK  119  A    between atoms: _291  and  _293
REMARK  120  A    between atoms: _293  and  _294
REMARK  121  A    between atoms: _293  and  _296
REMARK  122  A    between atoms: _296  and  _297
REMARK  123  A    between atoms: _300  and  _302
REMARK  124  A    between atoms: _302  and  _303
REMARK  125  A    between atoms: _302  and  _305
REMARK  126  A    between atoms: _305  and  _306
REMARK  127  A    between atoms: _309  and  _311
REMARK  128  A    between atoms: _311  and  _312
REMARK  129  A    between atoms: _311  and  _314
REMARK  130  A    between atoms: _314  and  _315
REMARK  131  A    between atoms: _318  and  _320
REMARK  132  A    between atoms: _320  and  _321
REMARK  133  A    between atoms: _320  and  _323
REMARK  134  A    between atoms: _323  and  _324
REMARK  135  A    between atoms: _327  and  _329
REMARK  136  A    between atoms: _329  and  _330
REMARK  137  A    between atoms: _332  and  _334
REMARK  138  A    between atoms: _334  and  _335
REMARK  139  A    between atoms: _338  and  _340
REMARK  140  A    between atoms: _340  and  _341
REMARK  141  A    between atoms: _340  and  _343
REMARK  142  A    between atoms: _343  and  _344
REMARK  143  A    between atoms: _347  and  _349
REMARK  144  A    between atoms: _349  and  _350
REMARK  145  A    between atoms: _349  and  _352
REMARK  146  A    between atoms: _352  and  _353
REMARK  147  A    between atoms: _356  and  _358
REMARK  148  A    between atoms: _358  and  _359
REMARK  149  A    between atoms: _358  and  _361
REMARK  150  A    between atoms: _361  and  _362
REMARK  151  A    between atoms: _365  and  _367
REMARK  152  A    between atoms: _367  and  _368
REMARK  153  A    between atoms: _367  and  _370
REMARK  154  A    between atoms: _373  and  _375
REMARK  155  A    between atoms: _375  and  _376
REMARK  156  A    between atoms: _375  and  _378
REMARK  157  A    between atoms: _378  and  _379
REMARK  158  A    between atoms: _382  and  _384
REMARK  159  A    between atoms: _384  and  _385
REMARK  160  A    between atoms: _387  and  _389
REMARK  161  A    between atoms: _389  and  _390
REMARK  162  A    between atoms: _392  and  _394
REMARK  163  A    between atoms: _394  and  _395
REMARK  164  A    between atoms: _394  and  _397
REMARK  165  A    between atoms: _397  and  _398
REMARK  166  A    between atoms: _401  and  _403
REMARK  167  A    between atoms: _403  and  _404
REMARK  168  A    between atoms: _406  and  _408
REMARK  169  A    between atoms: _408  and  _409
REMARK  170  A    between atoms: _411  and  _413
REMARK  171  A    between atoms: _413  and  _414
REMARK  172  A    between atoms: _413  and  _416
REMARK  173  A    between atoms: _416  and  _417
REMARK  174  A    between atoms: _420  and  _422
REMARK  175  A    between atoms: _422  and  _423
REMARK  176  A    between atoms: _422  and  _425
REMARK  177  A    between atoms: _425  and  _426
REMARK  178  A    between atoms: _430  and  _431
REMARK  179  A    between atoms: _436  and  _438
REMARK  180  A    between atoms: _438  and  _439
REMARK  181  A    between atoms: _442  and  _444
REMARK  182  A    between atoms: _444  and  _445
REMARK  183  A    between atoms: _444  and  _447
REMARK  184  A    between atoms: _447  and  _448
REMARK  185  A    between atoms: _453  and  _455
REMARK  186  A    between atoms: _455  and  _456
REMARK  187  A    between atoms: _455  and  _458
REMARK  188  A    between atoms: _458  and  _459
REMARK  189  A    between atoms: _462  and  _464
REMARK  190  A    between atoms: _464  and  _465
REMARK  191  A    between atoms: _464  and  _467
REMARK  192  A    between atoms: _467  and  _468
REMARK  193  A    between atoms: _471  and  _473
REMARK  194  A    between atoms: _473  and  _474
REMARK  195  A    between atoms: _476  and  _478
REMARK  196  A    between atoms: _478  and  _479
REMARK  197  A    between atoms: _478  and  _481
REMARK  198  A    between atoms: _481  and  _482
REMARK  199  A    between atoms: _482  and  _483
REMARK  200  A    between atoms: _483  and  _484
REMARK  201  A    between atoms: _493  and  _495
REMARK  202  A    between atoms: _495  and  _496
REMARK  203  A    between atoms: _495  and  _498
REMARK  204  A    between atoms: _498  and  _499
REMARK                            x       y       z     vdW  Elec       q    Type
REMARK                         _______ _______ _______ _____ _____    ______ ____
ROOT
ATOM      1  O   HOH     1      14.431  21.896  12.215  0.00  0.00    +0.000 OA
ENDROOT
TORSDOF 0
REMARK  Name = ../refined-set-2016/2qd7/2qd7_pocket.pdb
REMARK  204 active torsions:
REMARK  status: ('A' for Active; 'I' for Inactive)
REMARK    1  A    between atoms: _1  and  _3
REMARK    2  A    between atoms: _3  and  _4
REMARK    3  A    between atoms: _3  and  _6
REMARK    4  A    between atoms: _6  and  _7
REMARK    5  A    between atoms: _7  and  _8
REMARK    6  A    between atoms: _8  and  _9
REMARK    7  A    between atoms: _18  and  _20
REMARK    8  A    between atoms: _20  and  _21
REMARK    9  A    between atoms: _20  and  _23
REMARK   10  A    between atoms: _23  and  _24
REMARK   11  A    between atoms: _27  and  _29
REMARK   12  A    between atoms: _29  and  _30
REMARK   13  A    between atoms: _29  and  _32
REMARK   14  A    between atoms: _32  and  _33
REMARK   15  A    between atoms: _36  and  _38
REMARK   16  A    between atoms: _38  and  _39
REMARK   17  A    between atoms: _38  and  _41
REMARK   18  A    between atoms: _41  and  _42
REMARK   19  A    between atoms: _45  and  _47
REMARK   20  A    between atoms: _47  and  _48
REMARK   21  A    between atoms: _47  and  _50
REMARK   22  A    between atoms: _50  and  _51
REMARK   23  A    between atoms: _54  and  _56
REMARK   24  A    between atoms: _56  and  _57
REMARK   25  A    between atoms: _59  and  _61
REMARK   26  A    between atoms: _61  and  _62
REMARK   27  A    between atoms: _65  and  _67
REMARK   28  A    between atoms: _67  and  _68
REMARK   29  A    between atoms: _67  and  _70
REMARK   30  A    between atoms: _70  and  _71
REMARK   31  A    between atoms: _74  and  _76
REMARK   32  A    between atoms: _76  and  _77
REMARK   33  A    between atoms: _76  and  _79
REMARK   34  A    between atoms: _79  and  _80
REMARK   35  A    between atoms: _83  and  _85
REMARK   36  A    between atoms: _85  and  _86
REMARK   37  A    between atoms: _85  and  _88
REMARK   38  A    between atoms: _88  and  _89
REMARK   39  A    between atoms: _92  and  _94
REMARK   40  A    between atoms: _94  and  _95
REMARK   41  A    between atoms: _94  and  _97
REMARK   42  A    between atoms: _100  and  _102
REMARK   43  A    between atoms: _102  and  _103
REMARK   44  A    between atoms: _102  and  _105
REMARK   45  A    between atoms: _105  and  _106
REMARK   46  A    between atoms: _106  and  _107
REMARK   47  A    between atoms: _107  and  _108
REMARK   48  A    between atoms: _108  and  _109
REMARK   49  A    between atoms: _113  and  _115
REMARK   50  A    between atoms: _115  and  _116
REMARK   51  A    between atoms: _115  and  _118
REMARK   52  A    between atoms: _118  and  _119
REMARK   53  A    between atoms: _119  and  _120
REMARK   54  A    between atoms: _122  and  _124
REMARK   55  A    between atoms: _124  and  _125
REMARK   56  A    between atoms: _124  and  _127
REMARK   57  A    between atoms: _127  and  _128
REMARK   58  A    between atoms: _131  and  _133
REMARK   59  A    between atoms: _133  and  _134
REMARK   60  A    between atoms: _136  and  _138
REMARK   61  A    between atoms: _138  and  _139
REMARK   62  A    between atoms: _141  and  _143
REMARK   63  A    between atoms: _143  and  _144
REMARK   64  A    between atoms: _143  and  _146
REMARK   65  A    between atoms: _146  and  _147
REMARK   66  A    between atoms: _150  and  _152
REMARK   67  A    between atoms: _152  and  _153
REMARK   68  A    between atoms: _155  and  _157
REMARK   69  A    between atoms: _157  and  _158
REMARK   70  A    between atoms: _160  and  _162
REMARK   71  A    between atoms: _162  and  _163
REMARK   72  A    between atoms: _162  and  _165
REMARK   73  A    between atoms: _165  and  _166
REMARK   74  A    between atoms: _172  and  _174
REMARK   75  A    between atoms: _174  and  _175
REMARK   76  A    between atoms: _174  and  _177
REMARK   77  A    between atoms: _177  and  _178
REMARK   78  A    between atoms: _181  and  _183
REMARK   79  A    between atoms: _183  and  _184
REMARK   80  A    between atoms: _183  and  _186
REMARK   81  A    between atoms: _186  and  _187
REMARK   82  A    between atoms: _190  and  _192
REMARK   83  A    between atoms: _192  and  _193
REMARK   84  A    between atoms: _192  and  _195
REMARK   85  A    between atoms: _195  and  _196
REMARK   86  A    between atoms: _200  and  _201
REMARK   87  A    between atoms: _206  and  _208
REMARK   88  A    between atoms: _208  and  _209
REMARK   89  A    between atoms: _212  and  _214
REMARK   90  A    between atoms: _214  and  _215
REMARK   91  A    between atoms: _214  and  _217
REMARK   92  A    between atoms: _217  and  _218
REMARK   93  A    between atoms: _223  and  _225
REMARK   94  A    between atoms: _225  and  _226
REMARK   95  A    between atoms: _225  and  _228
REMARK   96  A    between atoms: _228  and  _229
REMARK   97  A    between atoms: _232  and  _234
REMARK   98  A    between atoms: _234  and  _235
REMARK   99  A    between atoms: _234  and  _237
REMARK  100  A    between atoms: _237  and  _238
REMARK  101  A    between atoms: _241  and  _243
REMARK  102  A    between atoms: _243  and  _244
REMARK  103  A    between atoms: _246  and  _248
REMARK  104  A    between atoms: _248  and  _249
REMARK  105  A    between atoms: _248  and  _251
REMARK  106  A    between atoms: _251  and  _252
REMARK  107  A    between atoms: _252  and  _253
REMARK  108  A    between atoms: _253  and  _254
REMARK  109  A    between atoms: _263  and  _265
REMARK  110  A    between atoms: _265  and  _266
REMARK  111  A    between atoms: _265  and  _268
REMARK  112  A    between atoms: _268  and  _269
REMARK  113  A    between atoms: _274  and  _276
REMARK  114  A    between atoms: _276  and  _277
REMARK  115  A    between atoms: _276  and  _279
REMARK  116  A    between atoms: _279  and  _280
REMARK  117  A    between atoms: _280  and  _281
REMARK  118  A    between atoms: _281  and  _282
REMARK  119  A    between atoms: _291  and  _293
REMARK  120  A    between atoms: _293  and  _294
REMARK  121  A    between atoms: _293  and  _296
REMARK  122  A    between atoms: _296  and  _297
REMARK  123  A    between atoms: _300  and  _302
REMARK  124  A    between atoms: _302  and  _303
REMARK  125  A    between atoms: _302  and  _305
REMARK  126  A    between atoms: _305  and  _306
REMARK  127  A    between atoms: _309  and  _311
REMARK  128  A    between atoms: _311  and  _312
REMARK  129  A    between atoms: _311  and  _314
REMARK  130  A    between atoms: _314  and  _315
REMARK  131  A    between atoms: _318  and  _320
REMARK  132  A    between atoms: _320  and  _321
REMARK  133  A    between atoms: _320  and  _323
REMARK  134  A    between atoms: _323  and  _324
REMARK  135  A    between atoms: _327  and  _329
REMARK  136  A    between atoms: _329  and  _330
REMARK  137  A    between atoms: _332  and  _334
REMARK  138  A    between atoms: _334  and  _335
REMARK  139  A    between atoms: _338  and  _340
REMARK  140  A    between atoms: _340  and  _341
REMARK  141  A    between atoms: _340  and  _343
REMARK  142  A    between atoms: _343  and  _344
REMARK  143  A    between atoms: _347  and  _349
REMARK  144  A    between atoms: _349  and  _350
REMARK  145  A    between atoms: _349  and  _352
REMARK  146  A    between atoms: _352  and  _353
REMARK  147  A    between atoms: _356  and  _358
REMARK  148  A    between atoms: _358  and  _359
REMARK  149  A    between atoms: _358  and  _361
REMARK  150  A    between atoms: _361  and  _362
REMARK  151  A    between atoms: _365  and  _367
REMARK  152  A    between atoms: _367  and  _368
REMARK  153  A    between atoms: _367  and  _370
REMARK  154  A    between atoms: _373  and  _375
REMARK  155  A    between atoms: _375  and  _376
REMARK  156  A    between atoms: _375  and  _378
REMARK  157  A    between atoms: _378  and  _379
REMARK  158  A    between atoms: _382  and  _384
REMARK  159  A    between atoms: _384  and  _385
REMARK  160  A    between atoms: _387  and  _389
REMARK  161  A    between atoms: _389  and  _390
REMARK  162  A    between atoms: _392  and  _394
REMARK  163  A    between atoms: _394  and  _395
REMARK  164  A    between atoms: _394  and  _397
REMARK  165  A    between atoms: _397  and  _398
REMARK  166  A    between atoms: _401  and  _403
REMARK  167  A    between atoms: _403  and  _404
REMARK  168  A    between atoms: _406  and  _408
REMARK  169  A    between atoms: _408  and  _409
REMARK  170  A    between atoms: _411  and  _413
REMARK  171  A    between atoms: _413  and  _414
REMARK  172  A    between atoms: _413  and  _416
REMARK  173  A    between atoms: _416  and  _417
REMARK  174  A    between atoms: _420  and  _422
REMARK  175  A    between atoms: _422  and  _423
REMARK  176  A    between atoms: _422  and  _425
REMARK  177  A    between atoms: _425  and  _426
REMARK  178  A    between atoms: _430  and  _431
REMARK  179  A    between atoms: _436  and  _438
REMARK  180  A    between atoms: _438  and  _439
REMARK  181  A    between atoms: _442  and  _444
REMARK  182  A    between atoms: _444  and  _445
REMARK  183  A    between atoms: _444  and  _447
REMARK  184  A    between atoms: _447  and  _448
REMARK  185  A    between atoms: _453  and  _455
REMARK  186  A    between atoms: _455  and  _456
REMARK  187  A    between atoms: _455  and  _458
REMARK  188  A    between atoms: _458  and  _459
REMARK  189  A    between atoms: _462  and  _464
REMARK  190  A    between atoms: _464  and  _465
REMARK  191  A    between atoms: _464  and  _467
REMARK  192  A    between atoms: _467  and  _468
REMARK  193  A    between atoms: _471  and  _473
REMARK  194  A    between atoms: _473  and  _474
REMARK  195  A    between atoms: _476  and  _478
REMARK  196  A    between atoms: _478  and  _479
REMARK  197  A    between atoms: _478  and  _481
REMARK  198  A    between atoms: _481  and  _482
REMARK  199  A    between atoms: _482  and  _483
REMARK  200  A    between atoms: _483  and  _484
REMARK  201  A    between atoms: _493  and  _495
REMARK  202  A    between atoms: _495  and  _496
REMARK  203  A    between atoms: _495  and  _498
REMARK  204  A    between atoms: _498  and  _499
REMARK                            x       y       z     vdW  Elec       q    Type
REMARK                         _______ _______ _______ _____ _____    ______ ____
ROOT
ATOM      1  O   HOH     1      17.152  39.513  20.903  0.00  0.00    +0.000 OA
ENDROOT
TORSDOF 0
REMARK  Name = ../refined-set-2016/2qd7/2qd7_pocket.pdb
REMARK  204 active torsions:
REMARK  status: ('A' for Active; 'I' for Inactive)
REMARK    1  A    between atoms: _1  and  _3
REMARK    2  A    between atoms: _3  and  _4
REMARK    3  A    between atoms: _3  and  _6
REMARK    4  A    between atoms: _6  and  _7
REMARK    5  A    between atoms: _7  and  _8
REMARK    6  A    between atoms: _8  and  _9
REMARK    7  A    between atoms: _18  and  _20
REMARK    8  A    between atoms: _20  and  _21
REMARK    9  A    between atoms: _20  and  _23
REMARK   10  A    between atoms: _23  and  _24
REMARK   11  A    between atoms: _27  and  _29
REMARK   12  A    between atoms: _29  and  _30
REMARK   13  A    between atoms: _29  and  _32
REMARK   14  A    between atoms: _32  and  _33
REMARK   15  A    between atoms: _36  and  _38
REMARK   16  A    between atoms: _38  and  _39
REMARK   17  A    between atoms: _38  and  _41
REMARK   18  A    between atoms: _41  and  _42
REMARK   19  A    between atoms: _45  and  _47
REMARK   20  A    between atoms: _47  and  _48
REMARK   21  A    between atoms: _47  and  _50
REMARK   22  A    between atoms: _50  and  _51
REMARK   23  A    between atoms: _54  and  _56
REMARK   24  A    between atoms: _56  and  _57
REMARK   25  A    between atoms: _59  and  _61
REMARK   26  A    between atoms: _61  and  _62
REMARK   27  A    between atoms: _65  and  _67
REMARK   28  A    between atoms: _67  and  _68
REMARK   29  A    between atoms: _67  and  _70
REMARK   30  A    between atoms: _70  and  _71
REMARK   31  A    between atoms: _74  and  _76
REMARK   32  A    between atoms: _76  and  _77
REMARK   33  A    between atoms: _76  and  _79
REMARK   34  A    between atoms: _79  and  _80
REMARK   35  A    between atoms: _83  and  _85
REMARK   36  A    between atoms: _85  and  _86
REMARK   37  A    between atoms: _85  and  _88
REMARK   38  A    between atoms: _88  and  _89
REMARK   39  A    between atoms: _92  and  _94
REMARK   40  A    between atoms: _94  and  _95
REMARK   41  A    between atoms: _94  and  _97
REMARK   42  A    between atoms: _100  and  _102
REMARK   43  A    between atoms: _102  and  _103
REMARK   44  A    between atoms: _102  and  _105
REMARK   45  A    between atoms: _105  and  _106
REMARK   46  A    between atoms: _106  and  _107
REMARK   47  A    between atoms: _107  and  _108
REMARK   48  A    between atoms: _108  and  _109
REMARK   49  A    between atoms: _113  and  _115
REMARK   50  A    between atoms: _115  and  _116
REMARK   51  A    between atoms: _115  and  _118
REMARK   52  A    between atoms: _118  and  _119
REMARK   53  A    between atoms: _119  and  _120
REMARK   54  A    between atoms: _122  and  _124
REMARK   55  A    between atoms: _124  and  _125
REMARK   56  A    between atoms: _124  and  _127
REMARK   57  A    between atoms: _127  and  _128
REMARK   58  A    between atoms: _131  and  _133
REMARK   59  A    between atoms: _133  and  _134
REMARK   60  A    between atoms: _136  and  _138
REMARK   61  A    between atoms: _138  and  _139
REMARK   62  A    between atoms: _141  and  _143
REMARK   63  A    between atoms: _143  and  _144
REMARK   64  A    between atoms: _143  and  _146
REMARK   65  A    between atoms: _146  and  _147
REMARK   66  A    between atoms: _150  and  _152
REMARK   67  A    between atoms: _152  and  _153
REMARK   68  A    between atoms: _155  and  _157
REMARK   69  A    between atoms: _157  and  _158
REMARK   70  A    between atoms: _160  and  _162
REMARK   71  A    between atoms: _162  and  _163
REMARK   72  A    between atoms: _162  and  _165
REMARK   73  A    between atoms: _165  and  _166
REMARK   74  A    between atoms: _172  and  _174
REMARK   75  A    between atoms: _174  and  _175
REMARK   76  A    between atoms: _174  and  _177
REMARK   77  A    between atoms: _177  and  _178
REMARK   78  A    between atoms: _181  and  _183
REMARK   79  A    between atoms: _183  and  _184
REMARK   80  A    between atoms: _183  and  _186
REMARK   81  A    between atoms: _186  and  _187
REMARK   82  A    between atoms: _190  and  _192
REMARK   83  A    between atoms: _192  and  _193
REMARK   84  A    between atoms: _192  and  _195
REMARK   85  A    between atoms: _195  and  _196
REMARK   86  A    between atoms: _200  and  _201
REMARK   87  A    between atoms: _206  and  _208
REMARK   88  A    between atoms: _208  and  _209
REMARK   89  A    between atoms: _212  and  _214
REMARK   90  A    between atoms: _214  and  _215
REMARK   91  A    between atoms: _214  and  _217
REMARK   92  A    between atoms: _217  and  _218
REMARK   93  A    between atoms: _223  and  _225
REMARK   94  A    between atoms: _225  and  _226
REMARK   95  A    between atoms: _225  and  _228
REMARK   96  A    between atoms: _228  and  _229
REMARK   97  A    between atoms: _232  and  _234
REMARK   98  A    between atoms: _234  and  _235
REMARK   99  A    between atoms: _234  and  _237
REMARK  100  A    between atoms: _237  and  _238
REMARK  101  A    between atoms: _241  and  _243
REMARK  102  A    between atoms: _243  and  _244
REMARK  103  A    between atoms: _246  and  _248
REMARK  104  A    between atoms: _248  and  _249
REMARK  105  A    between atoms: _248  and  _251
REMARK  106  A    between atoms: _251  and  _252
REMARK  107  A    between atoms: _252  and  _253
REMARK  108  A    between atoms: _253  and  _254
REMARK  109  A    between atoms: _263  and  _265
REMARK  110  A    between atoms: _265  and  _266
REMARK  111  A    between atoms: _265  and  _268
REMARK  112  A    between atoms: _268  and  _269
REMARK  113  A    between atoms: _274  and  _276
REMARK  114  A    between atoms: _276  and  _277
REMARK  115  A    between atoms: _276  and  _279
REMARK  116  A    between atoms: _279  and  _280
REMARK  117  A    between atoms: _280  and  _281
REMARK  118  A    between atoms: _281  and  _282
REMARK  119  A    between atoms: _291  and  _293
REMARK  120  A    between atoms: _293  and  _294
REMARK  121  A    between atoms: _293  and  _296
REMARK  122  A    between atoms: _296  and  _297
REMARK  123  A    between atoms: _300  and  _302
REMARK  124  A    between atoms: _302  and  _303
REMARK  125  A    between atoms: _302  and  _305
REMARK  126  A    between atoms: _305  and  _306
REMARK  127  A    between atoms: _309  and  _311
REMARK  128  A    between atoms: _311  and  _312
REMARK  129  A    between atoms: _311  and  _314
REMARK  130  A    between atoms: _314  and  _315
REMARK  131  A    between atoms: _318  and  _320
REMARK  132  A    between atoms: _320  and  _321
REMARK  133  A    between atoms: _320  and  _323
REMARK  134  A    between atoms: _323  and  _324
REMARK  135  A    between atoms: _327  and  _329
REMARK  136  A    between atoms: _329  and  _330
REMARK  137  A    between atoms: _332  and  _334
REMARK  138  A    between atoms: _334  and  _335
REMARK  139  A    between atoms: _338  and  _340
REMARK  140  A    between atoms: _340  and  _341
REMARK  141  A    between atoms: _340  and  _343
REMARK  142  A    between atoms: _343  and  _344
REMARK  143  A    between atoms: _347  and  _349
REMARK  144  A    between atoms: _349  and  _350
REMARK  145  A    between atoms: _349  and  _352
REMARK  146  A    between atoms: _352  and  _353
REMARK  147  A    between atoms: _356  and  _358
REMARK  148  A    between atoms: _358  and  _359
REMARK  149  A    between atoms: _358  and  _361
REMARK  150  A    between atoms: _361  and  _362
REMARK  151  A    between atoms: _365  and  _367
REMARK  152  A    between atoms: _367  and  _368
REMARK  153  A    between atoms: _367  and  _370
REMARK  154  A    between atoms: _373  and  _375
REMARK  155  A    between atoms: _375  and  _376
REMARK  156  A    between atoms: _375  and  _378
REMARK  157  A    between atoms: _378  and  _379
REMARK  158  A    between atoms: _382  and  _384
REMARK  159  A    between atoms: _384  and  _385
REMARK  160  A    between atoms: _387  and  _389
REMARK  161  A    between atoms: _389  and  _390
REMARK  162  A    between atoms: _392  and  _394
REMARK  163  A    between atoms: _394  and  _395
REMARK  164  A    between atoms: _394  and  _397
REMARK  165  A    between atoms: _397  and  _398
REMARK  166  A    between atoms: _401  and  _403
REMARK  167  A    between atoms: _403  and  _404
REMARK  168  A    between atoms: _406  and  _408
REMARK  169  A    between atoms: _408  and  _409
REMARK  170  A    between atoms: _411  and  _413
REMARK  171  A    between atoms: _413  and  _414
REMARK  172  A    between atoms: _413  and  _416
REMARK  173  A    between atoms: _416  and  _417
REMARK  174  A    between atoms: _420  and  _422
REMARK  175  A    between atoms: _422  and  _423
REMARK  176  A    between atoms: _422  and  _425
REMARK  177  A    between atoms: _425  and  _426
REMARK  178  A    between atoms: _430  and  _431
REMARK  179  A    between atoms: _436  and  _438
REMARK  180  A    between atoms: _438  and  _439
REMARK  181  A    between atoms: _442  and  _444
REMARK  182  A    between atoms: _444  and  _445
REMARK  183  A    between atoms: _444  and  _447
REMARK  184  A    between atoms: _447  and  _448
REMARK  185  A    between atoms: _453  and  _455
REMARK  186  A    between atoms: _455  and  _456
REMARK  187  A    between atoms: _455  and  _458
REMARK  188  A    between atoms: _458  and  _459
REMARK  189  A    between atoms: _462  and  _464
REMARK  190  A    between atoms: _464  and  _465
REMARK  191  A    between atoms: _464  and  _467
REMARK  192  A    between atoms: _467  and  _468
REMARK  193  A    between atoms: _471  and  _473
REMARK  194  A    between atoms: _473  and  _474
REMARK  195  A    between atoms: _476  and  _478
REMARK  196  A    between atoms: _478  and  _479
REMARK  197  A    between atoms: _478  and  _481
REMARK  198  A    between atoms: _481  and  _482
REMARK  199  A    between atoms: _482  and  _483
REMARK  200  A    between atoms: _483  and  _484
REMARK  201  A    between atoms: _493  and  _495
REMARK  202  A    between atoms: _495  and  _496
REMARK  203  A    between atoms: _495  and  _498
REMARK  204  A    between atoms: _498  and  _499
REMARK                            x       y       z     vdW  Elec       q    Type
REMARK                         _______ _______ _______ _____ _____    ______ ____
ROOT
ATOM      1  O   HOH     1      20.613  43.609  16.133  0.00  0.00    +0.000 OA
ENDROOT
TORSDOF 0
REMARK  Name = ../refined-set-2016/2qd7/2qd7_pocket.pdb
REMARK  204 active torsions:
REMARK  status: ('A' for Active; 'I' for Inactive)
REMARK    1  A    between atoms: _1  and  _3
REMARK    2  A    between atoms: _3  and  _4
REMARK    3  A    between atoms: _3  and  _6
REMARK    4  A    between atoms: _6  and  _7
REMARK    5  A    between atoms: _7  and  _8
REMARK    6  A    between atoms: _8  and  _9
REMARK    7  A    between atoms: _18  and  _20
REMARK    8  A    between atoms: _20  and  _21
REMARK    9  A    between atoms: _20  and  _23
REMARK   10  A    between atoms: _23  and  _24
REMARK   11  A    between atoms: _27  and  _29
REMARK   12  A    between atoms: _29  and  _30
REMARK   13  A    between atoms: _29  and  _32
REMARK   14  A    between atoms: _32  and  _33
REMARK   15  A    between atoms: _36  and  _38
REMARK   16  A    between atoms: _38  and  _39
REMARK   17  A    between atoms: _38  and  _41
REMARK   18  A    between atoms: _41  and  _42
REMARK   19  A    between atoms: _45  and  _47
REMARK   20  A    between atoms: _47  and  _48
REMARK   21  A    between atoms: _47  and  _50
REMARK   22  A    between atoms: _50  and  _51
REMARK   23  A    between atoms: _54  and  _56
REMARK   24  A    between atoms: _56  and  _57
REMARK   25  A    between atoms: _59  and  _61
REMARK   26  A    between atoms: _61  and  _62
REMARK   27  A    between atoms: _65  and  _67
REMARK   28  A    between atoms: _67  and  _68
REMARK   29  A    between atoms: _67  and  _70
REMARK   30  A    between atoms: _70  and  _71
REMARK   31  A    between atoms: _74  and  _76
REMARK   32  A    between atoms: _76  and  _77
REMARK   33  A    between atoms: _76  and  _79
REMARK   34  A    between atoms: _79  and  _80
REMARK   35  A    between atoms: _83  and  _85
REMARK   36  A    between atoms: _85  and  _86
REMARK   37  A    between atoms: _85  and  _88
REMARK   38  A    between atoms: _88  and  _89
REMARK   39  A    between atoms: _92  and  _94
REMARK   40  A    between atoms: _94  and  _95
REMARK   41  A    between atoms: _94  and  _97
REMARK   42  A    between atoms: _100  and  _102
REMARK   43  A    between atoms: _102  and  _103
REMARK   44  A    between atoms: _102  and  _105
REMARK   45  A    between atoms: _105  and  _106
REMARK   46  A    between atoms: _106  and  _107
REMARK   47  A    between atoms: _107  and  _108
REMARK   48  A    between atoms: _108  and  _109
REMARK   49  A    between atoms: _113  and  _115
REMARK   50  A    between atoms: _115  and  _116
REMARK   51  A    between atoms: _115  and  _118
REMARK   52  A    between atoms: _118  and  _119
REMARK   53  A    between atoms: _119  and  _120
REMARK   54  A    between atoms: _122  and  _124
REMARK   55  A    between atoms: _124  and  _125
REMARK   56  A    between atoms: _124  and  _127
REMARK   57  A    between atoms: _127  and  _128
REMARK   58  A    between atoms: _131  and  _133
REMARK   59  A    between atoms: _133  and  _134
REMARK   60  A    between atoms: _136  and  _138
REMARK   61  A    between atoms: _138  and  _139
REMARK   62  A    between atoms: _141  and  _143
REMARK   63  A    between atoms: _143  and  _144
REMARK   64  A    between atoms: _143  and  _146
REMARK   65  A    between atoms: _146  and  _147
REMARK   66  A    between atoms: _150  and  _152
REMARK   67  A    between atoms: _152  and  _153
REMARK   68  A    between atoms: _155  and  _157
REMARK   69  A    between atoms: _157  and  _158
REMARK   70  A    between atoms: _160  and  _162
REMARK   71  A    between atoms: _162  and  _163
REMARK   72  A    between atoms: _162  and  _165
REMARK   73  A    between atoms: _165  and  _166
REMARK   74  A    between atoms: _172  and  _174
REMARK   75  A    between atoms: _174  and  _175
REMARK   76  A    between atoms: _174  and  _177
REMARK   77  A    between atoms: _177  and  _178
REMARK   78  A    between atoms: _181  and  _183
REMARK   79  A    between atoms: _183  and  _184
REMARK   80  A    between atoms: _183  and  _186
REMARK   81  A    between atoms: _186  and  _187
REMARK   82  A    between atoms: _190  and  _192
REMARK   83  A    between atoms: _192  and  _193
REMARK   84  A    between atoms: _192  and  _195
REMARK   85  A    between atoms: _195  and  _196
REMARK   86  A    between atoms: _200  and  _201
REMARK   87  A    between atoms: _206  and  _208
REMARK   88  A    between atoms: _208  and  _209
REMARK   89  A    between atoms: _212  and  _214
REMARK   90  A    between atoms: _214  and  _215
REMARK   91  A    between atoms: _214  and  _217
REMARK   92  A    between atoms: _217  and  _218
REMARK   93  A    between atoms: _223  and  _225
REMARK   94  A    between atoms: _225  and  _226
REMARK   95  A    between atoms: _225  and  _228
REMARK   96  A    between atoms: _228  and  _229
REMARK   97  A    between atoms: _232  and  _234
REMARK   98  A    between atoms: _234  and  _235
REMARK   99  A    between atoms: _234  and  _237
REMARK  100  A    between atoms: _237  and  _238
REMARK  101  A    between atoms: _241  and  _243
REMARK  102  A    between atoms: _243  and  _244
REMARK  103  A    between atoms: _246  and  _248
REMARK  104  A    between atoms: _248  and  _249
REMARK  105  A    between atoms: _248  and  _251
REMARK  106  A    between atoms: _251  and  _252
REMARK  107  A    between atoms: _252  and  _253
REMARK  108  A    between atoms: _253  and  _254
REMARK  109  A    between atoms: _263  and  _265
REMARK  110  A    between atoms: _265  and  _266
REMARK  111  A    between atoms: _265  and  _268
REMARK  112  A    between atoms: _268  and  _269
REMARK  113  A    between atoms: _274  and  _276
REMARK  114  A    between atoms: _276  and  _277
REMARK  115  A    between atoms: _276  and  _279
REMARK  116  A    between atoms: _279  and  _280
REMARK  117  A    between atoms: _280  and  _281
REMARK  118  A    between atoms: _281  and  _282
REMARK  119  A    between atoms: _291  and  _293
REMARK  120  A    between atoms: _293  and  _294
REMARK  121  A    between atoms: _293  and  _296
REMARK  122  A    between atoms: _296  and  _297
REMARK  123  A    between atoms: _300  and  _302
REMARK  124  A    between atoms: _302  and  _303
REMARK  125  A    between atoms: _302  and  _305
REMARK  126  A    between atoms: _305  and  _306
REMARK  127  A    between atoms: _309  and  _311
REMARK  128  A    between atoms: _311  and  _312
REMARK  129  A    between atoms: _311  and  _314
REMARK  130  A    between atoms: _314  and  _315
REMARK  131  A    between atoms: _318  and  _320
REMARK  132  A    between atoms: _320  and  _321
REMARK  133  A    between atoms: _320  and  _323
REMARK  134  A    between atoms: _323  and  _324
REMARK  135  A    between atoms: _327  and  _329
REMARK  136  A    between atoms: _329  and  _330
REMARK  137  A    between atoms: _332  and  _334
REMARK  138  A    between atoms: _334  and  _335
REMARK  139  A    between atoms: _338  and  _340
REMARK  140  A    between atoms: _340  and  _341
REMARK  141  A    between atoms: _340  and  _343
REMARK  142  A    between atoms: _343  and  _344
REMARK  143  A    between atoms: _347  and  _349
REMARK  144  A    between atoms: _349  and  _350
REMARK  145  A    between atoms: _349  and  _352
REMARK  146  A    between atoms: _352  and  _353
REMARK  147  A    between atoms: _356  and  _358
REMARK  148  A    between atoms: _358  and  _359
REMARK  149  A    between atoms: _358  and  _361
REMARK  150  A    between atoms: _361  and  _362
REMARK  151  A    between atoms: _365  and  _367
REMARK  152  A    between atoms: _367  and  _368
REMARK  153  A    between atoms: _367  and  _370
REMARK  154  A    between atoms: _373  and  _375
REMARK  155  A    between atoms: _375  and  _376
REMARK  156  A    between atoms: _375  and  _378
REMARK  157  A    between atoms: _378  and  _379
REMARK  158  A    between atoms: _382  and  _384
REMARK  159  A    between atoms: _384  and  _385
REMARK  160  A    between atoms: _387  and  _389
REMARK  161  A    between atoms: _389  and  _390
REMARK  162  A    between atoms: _392  and  _394
REMARK  163  A    between atoms: _394  and  _395
REMARK  164  A    between atoms: _394  and  _397
REMARK  165  A    between atoms: _397  and  _398
REMARK  166  A    between atoms: _401  and  _403
REMARK  167  A    between atoms: _403  and  _404
REMARK  168  A    between atoms: _406  and  _408
REMARK  169  A    between atoms: _408  and  _409
REMARK  170  A    between atoms: _411  and  _413
REMARK  171  A    between atoms: _413  and  _414
REMARK  172  A    between atoms: _413  and  _416
REMARK  173  A    between atoms: _416  and  _417
REMARK  174  A    between atoms: _420  and  _422
REMARK  175  A    between atoms: _422  and  _423
REMARK  176  A    between atoms: _422  and  _425
REMARK  177  A    between atoms: _425  and  _426
REMARK  178  A    between atoms: _430  and  _431
REMARK  179  A    between atoms: _436  and  _438
REMARK  180  A    between atoms: _438  and  _439
REMARK  181  A    between atoms: _442  and  _444
REMARK  182  A    between atoms: _444  and  _445
REMARK  183  A    between atoms: _444  and  _447
REMARK  184  A    between atoms: _447  and  _448
REMARK  185  A    between atoms: _453  and  _455
REMARK  186  A    between atoms: _455  and  _456
REMARK  187  A    between atoms: _455  and  _458
REMARK  188  A    between atoms: _458  and  _459
REMARK  189  A    between atoms: _462  and  _464
REMARK  190  A    between atoms: _464  and  _465
REMARK  191  A    between atoms: _464  and  _467
REMARK  192  A    between atoms: _467  and  _468
REMARK  193  A    between atoms: _471  and  _473
REMARK  194  A    between atoms: _473  and  _474
REMARK  195  A    between atoms: _476  and  _478
REMARK  196  A    between atoms: _478  and  _479
REMARK  197  A    between atoms: _478  and  _481
REMARK  198  A    between atoms: _481  and  _482
REMARK  199  A    between atoms: _482  and  _483
REMARK  200  A    between atoms: _483  and  _484
REMARK  201  A    between atoms: _493  and  _495
REMARK  202  A    between atoms: _495  and  _496
REMARK  203  A    between atoms: _495  and  _498
REMARK  204  A    between atoms: _498  and  _499
REMARK                            x       y       z     vdW  Elec       q    Type
REMARK                         _______ _______ _______ _____ _____    ______ ____
ROOT
ATOM      1  O   HOH     1      14.694  19.485  11.008  0.00  0.00    +0.000 OA
ENDROOT
TORSDOF 0
REMARK  Name = ../refined-set-2016/2qd7/2qd7_pocket.pdb
REMARK  204 active torsions:
REMARK  status: ('A' for Active; 'I' for Inactive)
REMARK    1  A    between atoms: _1  and  _3
REMARK    2  A    between atoms: _3  and  _4
REMARK    3  A    between atoms: _3  and  _6
REMARK    4  A    between atoms: _6  and  _7
REMARK    5  A    between atoms: _7  and  _8
REMARK    6  A    between atoms: _8  and  _9
REMARK    7  A    between atoms: _18  and  _20
REMARK    8  A    between atoms: _20  and  _21
REMARK    9  A    between atoms: _20  and  _23
REMARK   10  A    between atoms: _23  and  _24
REMARK   11  A    between atoms: _27  and  _29
REMARK   12  A    between atoms: _29  and  _30
REMARK   13  A    between atoms: _29  and  _32
REMARK   14  A    between atoms: _32  and  _33
REMARK   15  A    between atoms: _36  and  _38
REMARK   16  A    between atoms: _38  and  _39
REMARK   17  A    between atoms: _38  and  _41
REMARK   18  A    between atoms: _41  and  _42
REMARK   19  A    between atoms: _45  and  _47
REMARK   20  A    between atoms: _47  and  _48
REMARK   21  A    between atoms: _47  and  _50
REMARK   22  A    between atoms: _50  and  _51
REMARK   23  A    between atoms: _54  and  _56
REMARK   24  A    between atoms: _56  and  _57
REMARK   25  A    between atoms: _59  and  _61
REMARK   26  A    between atoms: _61  and  _62
REMARK   27  A    between atoms: _65  and  _67
REMARK   28  A    between atoms: _67  and  _68
REMARK   29  A    between atoms: _67  and  _70
REMARK   30  A    between atoms: _70  and  _71
REMARK   31  A    between atoms: _74  and  _76
REMARK   32  A    between atoms: _76  and  _77
REMARK   33  A    between atoms: _76  and  _79
REMARK   34  A    between atoms: _79  and  _80
REMARK   35  A    between atoms: _83  and  _85
REMARK   36  A    between atoms: _85  and  _86
REMARK   37  A    between atoms: _85  and  _88
REMARK   38  A    between atoms: _88  and  _89
REMARK   39  A    between atoms: _92  and  _94
REMARK   40  A    between atoms: _94  and  _95
REMARK   41  A    between atoms: _94  and  _97
REMARK   42  A    between atoms: _100  and  _102
REMARK   43  A    between atoms: _102  and  _103
REMARK   44  A    between atoms: _102  and  _105
REMARK   45  A    between atoms: _105  and  _106
REMARK   46  A    between atoms: _106  and  _107
REMARK   47  A    between atoms: _107  and  _108
REMARK   48  A    between atoms: _108  and  _109
REMARK   49  A    between atoms: _113  and  _115
REMARK   50  A    between atoms: _115  and  _116
REMARK   51  A    between atoms: _115  and  _118
REMARK   52  A    between atoms: _118  and  _119
REMARK   53  A    between atoms: _119  and  _120
REMARK   54  A    between atoms: _122  and  _124
REMARK   55  A    between atoms: _124  and  _125
REMARK   56  A    between atoms: _124  and  _127
REMARK   57  A    between atoms: _127  and  _128
REMARK   58  A    between atoms: _131  and  _133
REMARK   59  A    between atoms: _133  and  _134
REMARK   60  A    between atoms: _136  and  _138
REMARK   61  A    between atoms: _138  and  _139
REMARK   62  A    between atoms: _141  and  _143
REMARK   63  A    between atoms: _143  and  _144
REMARK   64  A    between atoms: _143  and  _146
REMARK   65  A    between atoms: _146  and  _147
REMARK   66  A    between atoms: _150  and  _152
REMARK   67  A    between atoms: _152  and  _153
REMARK   68  A    between atoms: _155  and  _157
REMARK   69  A    between atoms: _157  and  _158
REMARK   70  A    between atoms: _160  and  _162
REMARK   71  A    between atoms: _162  and  _163
REMARK   72  A    between atoms: _162  and  _165
REMARK   73  A    between atoms: _165  and  _166
REMARK   74  A    between atoms: _172  and  _174
REMARK   75  A    between atoms: _174  and  _175
REMARK   76  A    between atoms: _174  and  _177
REMARK   77  A    between atoms: _177  and  _178
REMARK   78  A    between atoms: _181  and  _183
REMARK   79  A    between atoms: _183  and  _184
REMARK   80  A    between atoms: _183  and  _186
REMARK   81  A    between atoms: _186  and  _187
REMARK   82  A    between atoms: _190  and  _192
REMARK   83  A    between atoms: _192  and  _193
REMARK   84  A    between atoms: _192  and  _195
REMARK   85  A    between atoms: _195  and  _196
REMARK   86  A    between atoms: _200  and  _201
REMARK   87  A    between atoms: _206  and  _208
REMARK   88  A    between atoms: _208  and  _209
REMARK   89  A    between atoms: _212  and  _214
REMARK   90  A    between atoms: _214  and  _215
REMARK   91  A    between atoms: _214  and  _217
REMARK   92  A    between atoms: _217  and  _218
REMARK   93  A    between atoms: _223  and  _225
REMARK   94  A    between atoms: _225  and  _226
REMARK   95  A    between atoms: _225  and  _228
REMARK   96  A    between atoms: _228  and  _229
REMARK   97  A    between atoms: _232  and  _234
REMARK   98  A    between atoms: _234  and  _235
REMARK   99  A    between atoms: _234  and  _237
REMARK  100  A    between atoms: _237  and  _238
REMARK  101  A    between atoms: _241  and  _243
REMARK  102  A    between atoms: _243  and  _244
REMARK  103  A    between atoms: _246  and  _248
REMARK  104  A    between atoms: _248  and  _249
REMARK  105  A    between atoms: _248  and  _251
REMARK  106  A    between atoms: _251  and  _252
REMARK  107  A    between atoms: _252  and  _253
REMARK  108  A    between atoms: _253  and  _254
REMARK  109  A    between atoms: _263  and  _265
REMARK  110  A    between atoms: _265  and  _266
REMARK  111  A    between atoms: _265  and  _268
REMARK  112  A    between atoms: _268  and  _269
REMARK  113  A    between atoms: _274  and  _276
REMARK  114  A    between atoms: _276  and  _277
REMARK  115  A    between atoms: _276  and  _279
REMARK  116  A    between atoms: _279  and  _280
REMARK  117  A    between atoms: _280  and  _281
REMARK  118  A    between atoms: _281  and  _282
REMARK  119  A    between atoms: _291  and  _293
REMARK  120  A    between atoms: _293  and  _294
REMARK  121  A    between atoms: _293  and  _296
REMARK  122  A    between atoms: _296  and  _297
REMARK  123  A    between atoms: _300  and  _302
REMARK  124  A    between atoms: _302  and  _303
REMARK  125  A    between atoms: _302  and  _305
REMARK  126  A    between atoms: _305  and  _306
REMARK  127  A    between atoms: _309  and  _311
REMARK  128  A    between atoms: _311  and  _312
REMARK  129  A    between atoms: _311  and  _314
REMARK  130  A    between atoms: _314  and  _315
REMARK  131  A    between atoms: _318  and  _320
REMARK  132  A    between atoms: _320  and  _321
REMARK  133  A    between atoms: _320  and  _323
REMARK  134  A    between atoms: _323  and  _324
REMARK  135  A    between atoms: _327  and  _329
REMARK  136  A    between atoms: _329  and  _330
REMARK  137  A    between atoms: _332  and  _334
REMARK  138  A    between atoms: _334  and  _335
REMARK  139  A    between atoms: _338  and  _340
REMARK  140  A    between atoms: _340  and  _341
REMARK  141  A    between atoms: _340  and  _343
REMARK  142  A    between atoms: _343  and  _344
REMARK  143  A    between atoms: _347  and  _349
REMARK  144  A    between atoms: _349  and  _350
REMARK  145  A    between atoms: _349  and  _352
REMARK  146  A    between atoms: _352  and  _353
REMARK  147  A    between atoms: _356  and  _358
REMARK  148  A    between atoms: _358  and  _359
REMARK  149  A    between atoms: _358  and  _361
REMARK  150  A    between atoms: _361  and  _362
REMARK  151  A    between atoms: _365  and  _367
REMARK  152  A    between atoms: _367  and  _368
REMARK  153  A    between atoms: _367  and  _370
REMARK  154  A    between atoms: _373  and  _375
REMARK  155  A    between atoms: _375  and  _376
REMARK  156  A    between atoms: _375  and  _378
REMARK  157  A    between atoms: _378  and  _379
REMARK  158  A    between atoms: _382  and  _384
REMARK  159  A    between atoms: _384  and  _385
REMARK  160  A    between atoms: _387  and  _389
REMARK  161  A    between atoms: _389  and  _390
REMARK  162  A    between atoms: _392  and  _394
REMARK  163  A    between atoms: _394  and  _395
REMARK  164  A    between atoms: _394  and  _397
REMARK  165  A    between atoms: _397  and  _398
REMARK  166  A    between atoms: _401  and  _403
REMARK  167  A    between atoms: _403  and  _404
REMARK  168  A    between atoms: _406  and  _408
REMARK  169  A    between atoms: _408  and  _409
REMARK  170  A    between atoms: _411  and  _413
REMARK  171  A    between atoms: _413  and  _414
REMARK  172  A    between atoms: _413  and  _416
REMARK  173  A    between atoms: _416  and  _417
REMARK  174  A    between atoms: _420  and  _422
REMARK  175  A    between atoms: _422  and  _423
REMARK  176  A    between atoms: _422  and  _425
REMARK  177  A    between atoms: _425  and  _426
REMARK  178  A    between atoms: _430  and  _431
REMARK  179  A    between atoms: _436  and  _438
REMARK  180  A    between atoms: _438  and  _439
REMARK  181  A    between atoms: _442  and  _444
REMARK  182  A    between atoms: _444  and  _445
REMARK  183  A    between atoms: _444  and  _447
REMARK  184  A    between atoms: _447  and  _448
REMARK  185  A    between atoms: _453  and  _455
REMARK  186  A    between atoms: _455  and  _456
REMARK  187  A    between atoms: _455  and  _458
REMARK  188  A    between atoms: _458  and  _459
REMARK  189  A    between atoms: _462  and  _464
REMARK  190  A    between atoms: _464  and  _465
REMARK  191  A    between atoms: _464  and  _467
REMARK  192  A    between atoms: _467  and  _468
REMARK  193  A    between atoms: _471  and  _473
REMARK  194  A    between atoms: _473  and  _474
REMARK  195  A    between atoms: _476  and  _478
REMARK  196  A    between atoms: _478  and  _479
REMARK  197  A    between atoms: _478  and  _481
REMARK  198  A    between atoms: _481  and  _482
REMARK  199  A    between atoms: _482  and  _483
REMARK  200  A    between atoms: _483  and  _484
REMARK  201  A    between atoms: _493  and  _495
REMARK  202  A    between atoms: _495  and  _496
REMARK  203  A    between atoms: _495  and  _498
REMARK  204  A    between atoms: _498  and  _499
REMARK                            x       y       z     vdW  Elec       q    Type
REMARK                         _______ _______ _______ _____ _____    ______ ____
ROOT
ATOM      1  O   HOH     1      20.481  36.635  18.632  0.00  0.00    +0.000 OA
ENDROOT
TORSDOF 0
REMARK  Name = ../refined-set-2016/2qd7/2qd7_pocket.pdb
REMARK  204 active torsions:
REMARK  status: ('A' for Active; 'I' for Inactive)
REMARK    1  A    between atoms: _1  and  _3
REMARK    2  A    between atoms: _3  and  _4
REMARK    3  A    between atoms: _3  and  _6
REMARK    4  A    between atoms: _6  and  _7
REMARK    5  A    between atoms: _7  and  _8
REMARK    6  A    between atoms: _8  and  _9
REMARK    7  A    between atoms: _18  and  _20
REMARK    8  A    between atoms: _20  and  _21
REMARK    9  A    between atoms: _20  and  _23
REMARK   10  A    between atoms: _23  and  _24
REMARK   11  A    between atoms: _27  and  _29
REMARK   12  A    between atoms: _29  and  _30
REMARK   13  A    between atoms: _29  and  _32
REMARK   14  A    between atoms: _32  and  _33
REMARK   15  A    between atoms: _36  and  _38
REMARK   16  A    between atoms: _38  and  _39
REMARK   17  A    between atoms: _38  and  _41
REMARK   18  A    between atoms: _41  and  _42
REMARK   19  A    between atoms: _45  and  _47
REMARK   20  A    between atoms: _47  and  _48
REMARK   21  A    between atoms: _47  and  _50
REMARK   22  A    between atoms: _50  and  _51
REMARK   23  A    between atoms: _54  and  _56
REMARK   24  A    between atoms: _56  and  _57
REMARK   25  A    between atoms: _59  and  _61
REMARK   26  A    between atoms: _61  and  _62
REMARK   27  A    between atoms: _65  and  _67
REMARK   28  A    between atoms: _67  and  _68
REMARK   29  A    between atoms: _67  and  _70
REMARK   30  A    between atoms: _70  and  _71
REMARK   31  A    between atoms: _74  and  _76
REMARK   32  A    between atoms: _76  and  _77
REMARK   33  A    between atoms: _76  and  _79
REMARK   34  A    between atoms: _79  and  _80
REMARK   35  A    between atoms: _83  and  _85
REMARK   36  A    between atoms: _85  and  _86
REMARK   37  A    between atoms: _85  and  _88
REMARK   38  A    between atoms: _88  and  _89
REMARK   39  A    between atoms: _92  and  _94
REMARK   40  A    between atoms: _94  and  _95
REMARK   41  A    between atoms: _94  and  _97
REMARK   42  A    between atoms: _100  and  _102
REMARK   43  A    between atoms: _102  and  _103
REMARK   44  A    between atoms: _102  and  _105
REMARK   45  A    between atoms: _105  and  _106
REMARK   46  A    between atoms: _106  and  _107
REMARK   47  A    between atoms: _107  and  _108
REMARK   48  A    between atoms: _108  and  _109
REMARK   49  A    between atoms: _113  and  _115
REMARK   50  A    between atoms: _115  and  _116
REMARK   51  A    between atoms: _115  and  _118
REMARK   52  A    between atoms: _118  and  _119
REMARK   53  A    between atoms: _119  and  _120
REMARK   54  A    between atoms: _122  and  _124
REMARK   55  A    between atoms: _124  and  _125
REMARK   56  A    between atoms: _124  and  _127
REMARK   57  A    between atoms: _127  and  _128
REMARK   58  A    between atoms: _131  and  _133
REMARK   59  A    between atoms: _133  and  _134
REMARK   60  A    between atoms: _136  and  _138
REMARK   61  A    between atoms: _138  and  _139
REMARK   62  A    between atoms: _141  and  _143
REMARK   63  A    between atoms: _143  and  _144
REMARK   64  A    between atoms: _143  and  _146
REMARK   65  A    between atoms: _146  and  _147
REMARK   66  A    between atoms: _150  and  _152
REMARK   67  A    between atoms: _152  and  _153
REMARK   68  A    between atoms: _155  and  _157
REMARK   69  A    between atoms: _157  and  _158
REMARK   70  A    between atoms: _160  and  _162
REMARK   71  A    between atoms: _162  and  _163
REMARK   72  A    between atoms: _162  and  _165
REMARK   73  A    between atoms: _165  and  _166
REMARK   74  A    between atoms: _172  and  _174
REMARK   75  A    between atoms: _174  and  _175
REMARK   76  A    between atoms: _174  and  _177
REMARK   77  A    between atoms: _177  and  _178
REMARK   78  A    between atoms: _181  and  _183
REMARK   79  A    between atoms: _183  and  _184
REMARK   80  A    between atoms: _183  and  _186
REMARK   81  A    between atoms: _186  and  _187
REMARK   82  A    between atoms: _190  and  _192
REMARK   83  A    between atoms: _192  and  _193
REMARK   84  A    between atoms: _192  and  _195
REMARK   85  A    between atoms: _195  and  _196
REMARK   86  A    between atoms: _200  and  _201
REMARK   87  A    between atoms: _206  and  _208
REMARK   88  A    between atoms: _208  and  _209
REMARK   89  A    between atoms: _212  and  _214
REMARK   90  A    between atoms: _214  and  _215
REMARK   91  A    between atoms: _214  and  _217
REMARK   92  A    between atoms: _217  and  _218
REMARK   93  A    between atoms: _223  and  _225
REMARK   94  A    between atoms: _225  and  _226
REMARK   95  A    between atoms: _225  and  _228
REMARK   96  A    between atoms: _228  and  _229
REMARK   97  A    between atoms: _232  and  _234
REMARK   98  A    between atoms: _234  and  _235
REMARK   99  A    between atoms: _234  and  _237
REMARK  100  A    between atoms: _237  and  _238
REMARK  101  A    between atoms: _241  and  _243
REMARK  102  A    between atoms: _243  and  _244
REMARK  103  A    between atoms: _246  and  _248
REMARK  104  A    between atoms: _248  and  _249
REMARK  105  A    between atoms: _248  and  _251
REMARK  106  A    between atoms: _251  and  _252
REMARK  107  A    between atoms: _252  and  _253
REMARK  108  A    between atoms: _253  and  _254
REMARK  109  A    between atoms: _263  and  _265
REMARK  110  A    between atoms: _265  and  _266
REMARK  111  A    between atoms: _265  and  _268
REMARK  112  A    between atoms: _268  and  _269
REMARK  113  A    between atoms: _274  and  _276
REMARK  114  A    between atoms: _276  and  _277
REMARK  115  A    between atoms: _276  and  _279
REMARK  116  A    between atoms: _279  and  _280
REMARK  117  A    between atoms: _280  and  _281
REMARK  118  A    between atoms: _281  and  _282
REMARK  119  A    between atoms: _291  and  _293
REMARK  120  A    between atoms: _293  and  _294
REMARK  121  A    between atoms: _293  and  _296
REMARK  122  A    between atoms: _296  and  _297
REMARK  123  A    between atoms: _300  and  _302
REMARK  124  A    between atoms: _302  and  _303
REMARK  125  A    between atoms: _302  and  _305
REMARK  126  A    between atoms: _305  and  _306
REMARK  127  A    between atoms: _309  and  _311
REMARK  128  A    between atoms: _311  and  _312
REMARK  129  A    between atoms: _311  and  _314
REMARK  130  A    between atoms: _314  and  _315
REMARK  131  A    between atoms: _318  and  _320
REMARK  132  A    between atoms: _320  and  _321
REMARK  133  A    between atoms: _320  and  _323
REMARK  134  A    between atoms: _323  and  _324
REMARK  135  A    between atoms: _327  and  _329
REMARK  136  A    between atoms: _329  and  _330
REMARK  137  A    between atoms: _332  and  _334
REMARK  138  A    between atoms: _334  and  _335
REMARK  139  A    between atoms: _338  and  _340
REMARK  140  A    between atoms: _340  and  _341
REMARK  141  A    between atoms: _340  and  _343
REMARK  142  A    between atoms: _343  and  _344
REMARK  143  A    between atoms: _347  and  _349
REMARK  144  A    between atoms: _349  and  _350
REMARK  145  A    between atoms: _349  and  _352
REMARK  146  A    between atoms: _352  and  _353
REMARK  147  A    between atoms: _356  and  _358
REMARK  148  A    between atoms: _358  and  _359
REMARK  149  A    between atoms: _358  and  _361
REMARK  150  A    between atoms: _361  and  _362
REMARK  151  A    between atoms: _365  and  _367
REMARK  152  A    between atoms: _367  and  _368
REMARK  153  A    between atoms: _367  and  _370
REMARK  154  A    between atoms: _373  and  _375
REMARK  155  A    between atoms: _375  and  _376
REMARK  156  A    between atoms: _375  and  _378
REMARK  157  A    between atoms: _378  and  _379
REMARK  158  A    between atoms: _382  and  _384
REMARK  159  A    between atoms: _384  and  _385
REMARK  160  A    between atoms: _387  and  _389
REMARK  161  A    between atoms: _389  and  _390
REMARK  162  A    between atoms: _392  and  _394
REMARK  163  A    between atoms: _394  and  _395
REMARK  164  A    between atoms: _394  and  _397
REMARK  165  A    between atoms: _397  and  _398
REMARK  166  A    between atoms: _401  and  _403
REMARK  167  A    between atoms: _403  and  _404
REMARK  168  A    between atoms: _406  and  _408
REMARK  169  A    between atoms: _408  and  _409
REMARK  170  A    between atoms: _411  and  _413
REMARK  171  A    between atoms: _413  and  _414
REMARK  172  A    between atoms: _413  and  _416
REMARK  173  A    between atoms: _416  and  _417
REMARK  174  A    between atoms: _420  and  _422
REMARK  175  A    between atoms: _422  and  _423
REMARK  176  A    between atoms: _422  and  _425
REMARK  177  A    between atoms: _425  and  _426
REMARK  178  A    between atoms: _430  and  _431
REMARK  179  A    between atoms: _436  and  _438
REMARK  180  A    between atoms: _438  and  _439
REMARK  181  A    between atoms: _442  and  _444
REMARK  182  A    between atoms: _444  and  _445
REMARK  183  A    between atoms: _444  and  _447
REMARK  184  A    between atoms: _447  and  _448
REMARK  185  A    between atoms: _453  and  _455
REMARK  186  A    between atoms: _455  and  _456
REMARK  187  A    between atoms: _455  and  _458
REMARK  188  A    between atoms: _458  and  _459
REMARK  189  A    between atoms: _462  and  _464
REMARK  190  A    between atoms: _464  and  _465
REMARK  191  A    between atoms: _464  and  _467
REMARK  192  A    between atoms: _467  and  _468
REMARK  193  A    between atoms: _471  and  _473
REMARK  194  A    between atoms: _473  and  _474
REMARK  195  A    between atoms: _476  and  _478
REMARK  196  A    between atoms: _478  and  _479
REMARK  197  A    between atoms: _478  and  _481
REMARK  198  A    between atoms: _481  and  _482
REMARK  199  A    between atoms: _482  and  _483
REMARK  200  A    between atoms: _483  and  _484
REMARK  201  A    between atoms: _493  and  _495
REMARK  202  A    between atoms: _495  and  _496
REMARK  203  A    between atoms: _495  and  _498
REMARK  204  A    between atoms: _498  and  _499
REMARK                            x       y       z     vdW  Elec       q    Type
REMARK                         _______ _______ _______ _____ _____    ______ ____
ROOT
ATOM      1  O   HOH     1      20.520  32.050  12.040  0.00  0.00    +0.000 OA
ENDROOT
TORSDOF 0
REMARK  Name = ../refined-set-2016/2qd7/2qd7_pocket.pdb
REMARK  204 active torsions:
REMARK  status: ('A' for Active; 'I' for Inactive)
REMARK    1  A    between atoms: _1  and  _3
REMARK    2  A    between atoms: _3  and  _4
REMARK    3  A    between atoms: _3  and  _6
REMARK    4  A    between atoms: _6  and  _7
REMARK    5  A    between atoms: _7  and  _8
REMARK    6  A    between atoms: _8  and  _9
REMARK    7  A    between atoms: _18  and  _20
REMARK    8  A    between atoms: _20  and  _21
REMARK    9  A    between atoms: _20  and  _23
REMARK   10  A    between atoms: _23  and  _24
REMARK   11  A    between atoms: _27  and  _29
REMARK   12  A    between atoms: _29  and  _30
REMARK   13  A    between atoms: _29  and  _32
REMARK   14  A    between atoms: _32  and  _33
REMARK   15  A    between atoms: _36  and  _38
REMARK   16  A    between atoms: _38  and  _39
REMARK   17  A    between atoms: _38  and  _41
REMARK   18  A    between atoms: _41  and  _42
REMARK   19  A    between atoms: _45  and  _47
REMARK   20  A    between atoms: _47  and  _48
REMARK   21  A    between atoms: _47  and  _50
REMARK   22  A    between atoms: _50  and  _51
REMARK   23  A    between atoms: _54  and  _56
REMARK   24  A    between atoms: _56  and  _57
REMARK   25  A    between atoms: _59  and  _61
REMARK   26  A    between atoms: _61  and  _62
REMARK   27  A    between atoms: _65  and  _67
REMARK   28  A    between atoms: _67  and  _68
REMARK   29  A    between atoms: _67  and  _70
REMARK   30  A    between atoms: _70  and  _71
REMARK   31  A    between atoms: _74  and  _76
REMARK   32  A    between atoms: _76  and  _77
REMARK   33  A    between atoms: _76  and  _79
REMARK   34  A    between atoms: _79  and  _80
REMARK   35  A    between atoms: _83  and  _85
REMARK   36  A    between atoms: _85  and  _86
REMARK   37  A    between atoms: _85  and  _88
REMARK   38  A    between atoms: _88  and  _89
REMARK   39  A    between atoms: _92  and  _94
REMARK   40  A    between atoms: _94  and  _95
REMARK   41  A    between atoms: _94  and  _97
REMARK   42  A    between atoms: _100  and  _102
REMARK   43  A    between atoms: _102  and  _103
REMARK   44  A    between atoms: _102  and  _105
REMARK   45  A    between atoms: _105  and  _106
REMARK   46  A    between atoms: _106  and  _107
REMARK   47  A    between atoms: _107  and  _108
REMARK   48  A    between atoms: _108  and  _109
REMARK   49  A    between atoms: _113  and  _115
REMARK   50  A    between atoms: _115  and  _116
REMARK   51  A    between atoms: _115  and  _118
REMARK   52  A    between atoms: _118  and  _119
REMARK   53  A    between atoms: _119  and  _120
REMARK   54  A    between atoms: _122  and  _124
REMARK   55  A    between atoms: _124  and  _125
REMARK   56  A    between atoms: _124  and  _127
REMARK   57  A    between atoms: _127  and  _128
REMARK   58  A    between atoms: _131  and  _133
REMARK   59  A    between atoms: _133  and  _134
REMARK   60  A    between atoms: _136  and  _138
REMARK   61  A    between atoms: _138  and  _139
REMARK   62  A    between atoms: _141  and  _143
REMARK   63  A    between atoms: _143  and  _144
REMARK   64  A    between atoms: _143  and  _146
REMARK   65  A    between atoms: _146  and  _147
REMARK   66  A    between atoms: _150  and  _152
REMARK   67  A    between atoms: _152  and  _153
REMARK   68  A    between atoms: _155  and  _157
REMARK   69  A    between atoms: _157  and  _158
REMARK   70  A    between atoms: _160  and  _162
REMARK   71  A    between atoms: _162  and  _163
REMARK   72  A    between atoms: _162  and  _165
REMARK   73  A    between atoms: _165  and  _166
REMARK   74  A    between atoms: _172  and  _174
REMARK   75  A    between atoms: _174  and  _175
REMARK   76  A    between atoms: _174  and  _177
REMARK   77  A    between atoms: _177  and  _178
REMARK   78  A    between atoms: _181  and  _183
REMARK   79  A    between atoms: _183  and  _184
REMARK   80  A    between atoms: _183  and  _186
REMARK   81  A    between atoms: _186  and  _187
REMARK   82  A    between atoms: _190  and  _192
REMARK   83  A    between atoms: _192  and  _193
REMARK   84  A    between atoms: _192  and  _195
REMARK   85  A    between atoms: _195  and  _196
REMARK   86  A    between atoms: _200  and  _201
REMARK   87  A    between atoms: _206  and  _208
REMARK   88  A    between atoms: _208  and  _209
REMARK   89  A    between atoms: _212  and  _214
REMARK   90  A    between atoms: _214  and  _215
REMARK   91  A    between atoms: _214  and  _217
REMARK   92  A    between atoms: _217  and  _218
REMARK   93  A    between atoms: _223  and  _225
REMARK   94  A    between atoms: _225  and  _226
REMARK   95  A    between atoms: _225  and  _228
REMARK   96  A    between atoms: _228  and  _229
REMARK   97  A    between atoms: _232  and  _234
REMARK   98  A    between atoms: _234  and  _235
REMARK   99  A    between atoms: _234  and  _237
REMARK  100  A    between atoms: _237  and  _238
REMARK  101  A    between atoms: _241  and  _243
REMARK  102  A    between atoms: _243  and  _244
REMARK  103  A    between atoms: _246  and  _248
REMARK  104  A    between atoms: _248  and  _249
REMARK  105  A    between atoms: _248  and  _251
REMARK  106  A    between atoms: _251  and  _252
REMARK  107  A    between atoms: _252  and  _253
REMARK  108  A    between atoms: _253  and  _254
REMARK  109  A    between atoms: _263  and  _265
REMARK  110  A    between atoms: _265  and  _266
REMARK  111  A    between atoms: _265  and  _268
REMARK  112  A    between atoms: _268  and  _269
REMARK  113  A    between atoms: _274  and  _276
REMARK  114  A    between atoms: _276  and  _277
REMARK  115  A    between atoms: _276  and  _279
REMARK  116  A    between atoms: _279  and  _280
REMARK  117  A    between atoms: _280  and  _281
REMARK  118  A    between atoms: _281  and  _282
REMARK  119  A    between atoms: _291  and  _293
REMARK  120  A    between atoms: _293  and  _294
REMARK  121  A    between atoms: _293  and  _296
REMARK  122  A    between atoms: _296  and  _297
REMARK  123  A    between atoms: _300  and  _302
REMARK  124  A    between atoms: _302  and  _303
REMARK  125  A    between atoms: _302  and  _305
REMARK  126  A    between atoms: _305  and  _306
REMARK  127  A    between atoms: _309  and  _311
REMARK  128  A    between atoms: _311  and  _312
REMARK  129  A    between atoms: _311  and  _314
REMARK  130  A    between atoms: _314  and  _315
REMARK  131  A    between atoms: _318  and  _320
REMARK  132  A    between atoms: _320  and  _321
REMARK  133  A    between atoms: _320  and  _323
REMARK  134  A    between atoms: _323  and  _324
REMARK  135  A    between atoms: _327  and  _329
REMARK  136  A    between atoms: _329  and  _330
REMARK  137  A    between atoms: _332  and  _334
REMARK  138  A    between atoms: _334  and  _335
REMARK  139  A    between atoms: _338  and  _340
REMARK  140  A    between atoms: _340  and  _341
REMARK  141  A    between atoms: _340  and  _343
REMARK  142  A    between atoms: _343  and  _344
REMARK  143  A    between atoms: _347  and  _349
REMARK  144  A    between atoms: _349  and  _350
REMARK  145  A    between atoms: _349  and  _352
REMARK  146  A    between atoms: _352  and  _353
REMARK  147  A    between atoms: _356  and  _358
REMARK  148  A    between atoms: _358  and  _359
REMARK  149  A    between atoms: _358  and  _361
REMARK  150  A    between atoms: _361  and  _362
REMARK  151  A    between atoms: _365  and  _367
REMARK  152  A    between atoms: _367  and  _368
REMARK  153  A    between atoms: _367  and  _370
REMARK  154  A    between atoms: _373  and  _375
REMARK  155  A    between atoms: _375  and  _376
REMARK  156  A    between atoms: _375  and  _378
REMARK  157  A    between atoms: _378  and  _379
REMARK  158  A    between atoms: _382  and  _384
REMARK  159  A    between atoms: _384  and  _385
REMARK  160  A    between atoms: _387  and  _389
REMARK  161  A    between atoms: _389  and  _390
REMARK  162  A    between atoms: _392  and  _394
REMARK  163  A    between atoms: _394  and  _395
REMARK  164  A    between atoms: _394  and  _397
REMARK  165  A    between atoms: _397  and  _398
REMARK  166  A    between atoms: _401  and  _403
REMARK  167  A    between atoms: _403  and  _404
REMARK  168  A    between atoms: _406  and  _408
REMARK  169  A    between atoms: _408  and  _409
REMARK  170  A    between atoms: _411  and  _413
REMARK  171  A    between atoms: _413  and  _414
REMARK  172  A    between atoms: _413  and  _416
REMARK  173  A    between atoms: _416  and  _417
REMARK  174  A    between atoms: _420  and  _422
REMARK  175  A    between atoms: _422  and  _423
REMARK  176  A    between atoms: _422  and  _425
REMARK  177  A    between atoms: _425  and  _426
REMARK  178  A    between atoms: _430  and  _431
REMARK  179  A    between atoms: _436  and  _438
REMARK  180  A    between atoms: _438  and  _439
REMARK  181  A    between atoms: _442  and  _444
REMARK  182  A    between atoms: _444  and  _445
REMARK  183  A    between atoms: _444  and  _447
REMARK  184  A    between atoms: _447  and  _448
REMARK  185  A    between atoms: _453  and  _455
REMARK  186  A    between atoms: _455  and  _456
REMARK  187  A    between atoms: _455  and  _458
REMARK  188  A    between atoms: _458  and  _459
REMARK  189  A    between atoms: _462  and  _464
REMARK  190  A    between atoms: _464  and  _465
REMARK  191  A    between atoms: _464  and  _467
REMARK  192  A    between atoms: _467  and  _468
REMARK  193  A    between atoms: _471  and  _473
REMARK  194  A    between atoms: _473  and  _474
REMARK  195  A    between atoms: _476  and  _478
REMARK  196  A    between atoms: _478  and  _479
REMARK  197  A    between atoms: _478  and  _481
REMARK  198  A    between atoms: _481  and  _482
REMARK  199  A    between atoms: _482  and  _483
REMARK  200  A    between atoms: _483  and  _484
REMARK  201  A    between atoms: _493  and  _495
REMARK  202  A    between atoms: _495  and  _496
REMARK  203  A    between atoms: _495  and  _498
REMARK  204  A    between atoms: _498  and  _499
REMARK                            x       y       z     vdW  Elec       q    Type
REMARK                         _______ _______ _______ _____ _____    ______ ____
ROOT
ATOM      1  O   HOH     1      19.978  21.536  16.060  0.00  0.00    +0.000 OA
ENDROOT
TORSDOF 0
REMARK  Name = ../refined-set-2016/2qd7/2qd7_pocket.pdb
REMARK  204 active torsions:
REMARK  status: ('A' for Active; 'I' for Inactive)
REMARK    1  A    between atoms: _1  and  _3
REMARK    2  A    between atoms: _3  and  _4
REMARK    3  A    between atoms: _3  and  _6
REMARK    4  A    between atoms: _6  and  _7
REMARK    5  A    between atoms: _7  and  _8
REMARK    6  A    between atoms: _8  and  _9
REMARK    7  A    between atoms: _18  and  _20
REMARK    8  A    between atoms: _20  and  _21
REMARK    9  A    between atoms: _20  and  _23
REMARK   10  A    between atoms: _23  and  _24
REMARK   11  A    between atoms: _27  and  _29
REMARK   12  A    between atoms: _29  and  _30
REMARK   13  A    between atoms: _29  and  _32
REMARK   14  A    between atoms: _32  and  _33
REMARK   15  A    between atoms: _36  and  _38
REMARK   16  A    between atoms: _38  and  _39
REMARK   17  A    between atoms: _38  and  _41
REMARK   18  A    between atoms: _41  and  _42
REMARK   19  A    between atoms: _45  and  _47
REMARK   20  A    between atoms: _47  and  _48
REMARK   21  A    between atoms: _47  and  _50
REMARK   22  A    between atoms: _50  and  _51
REMARK   23  A    between atoms: _54  and  _56
REMARK   24  A    between atoms: _56  and  _57
REMARK   25  A    between atoms: _59  and  _61
REMARK   26  A    between atoms: _61  and  _62
REMARK   27  A    between atoms: _65  and  _67
REMARK   28  A    between atoms: _67  and  _68
REMARK   29  A    between atoms: _67  and  _70
REMARK   30  A    between atoms: _70  and  _71
REMARK   31  A    between atoms: _74  and  _76
REMARK   32  A    between atoms: _76  and  _77
REMARK   33  A    between atoms: _76  and  _79
REMARK   34  A    between atoms: _79  and  _80
REMARK   35  A    between atoms: _83  and  _85
REMARK   36  A    between atoms: _85  and  _86
REMARK   37  A    between atoms: _85  and  _88
REMARK   38  A    between atoms: _88  and  _89
REMARK   39  A    between atoms: _92  and  _94
REMARK   40  A    between atoms: _94  and  _95
REMARK   41  A    between atoms: _94  and  _97
REMARK   42  A    between atoms: _100  and  _102
REMARK   43  A    between atoms: _102  and  _103
REMARK   44  A    between atoms: _102  and  _105
REMARK   45  A    between atoms: _105  and  _106
REMARK   46  A    between atoms: _106  and  _107
REMARK   47  A    between atoms: _107  and  _108
REMARK   48  A    between atoms: _108  and  _109
REMARK   49  A    between atoms: _113  and  _115
REMARK   50  A    between atoms: _115  and  _116
REMARK   51  A    between atoms: _115  and  _118
REMARK   52  A    between atoms: _118  and  _119
REMARK   53  A    between atoms: _119  and  _120
REMARK   54  A    between atoms: _122  and  _124
REMARK   55  A    between atoms: _124  and  _125
REMARK   56  A    between atoms: _124  and  _127
REMARK   57  A    between atoms: _127  and  _128
REMARK   58  A    between atoms: _131  and  _133
REMARK   59  A    between atoms: _133  and  _134
REMARK   60  A    between atoms: _136  and  _138
REMARK   61  A    between atoms: _138  and  _139
REMARK   62  A    between atoms: _141  and  _143
REMARK   63  A    between atoms: _143  and  _144
REMARK   64  A    between atoms: _143  and  _146
REMARK   65  A    between atoms: _146  and  _147
REMARK   66  A    between atoms: _150  and  _152
REMARK   67  A    between atoms: _152  and  _153
REMARK   68  A    between atoms: _155  and  _157
REMARK   69  A    between atoms: _157  and  _158
REMARK   70  A    between atoms: _160  and  _162
REMARK   71  A    between atoms: _162  and  _163
REMARK   72  A    between atoms: _162  and  _165
REMARK   73  A    between atoms: _165  and  _166
REMARK   74  A    between atoms: _172  and  _174
REMARK   75  A    between atoms: _174  and  _175
REMARK   76  A    between atoms: _174  and  _177
REMARK   77  A    between atoms: _177  and  _178
REMARK   78  A    between atoms: _181  and  _183
REMARK   79  A    between atoms: _183  and  _184
REMARK   80  A    between atoms: _183  and  _186
REMARK   81  A    between atoms: _186  and  _187
REMARK   82  A    between atoms: _190  and  _192
REMARK   83  A    between atoms: _192  and  _193
REMARK   84  A    between atoms: _192  and  _195
REMARK   85  A    between atoms: _195  and  _196
REMARK   86  A    between atoms: _200  and  _201
REMARK   87  A    between atoms: _206  and  _208
REMARK   88  A    between atoms: _208  and  _209
REMARK   89  A    between atoms: _212  and  _214
REMARK   90  A    between atoms: _214  and  _215
REMARK   91  A    between atoms: _214  and  _217
REMARK   92  A    between atoms: _217  and  _218
REMARK   93  A    between atoms: _223  and  _225
REMARK   94  A    between atoms: _225  and  _226
REMARK   95  A    between atoms: _225  and  _228
REMARK   96  A    between atoms: _228  and  _229
REMARK   97  A    between atoms: _232  and  _234
REMARK   98  A    between atoms: _234  and  _235
REMARK   99  A    between atoms: _234  and  _237
REMARK  100  A    between atoms: _237  and  _238
REMARK  101  A    between atoms: _241  and  _243
REMARK  102  A    between atoms: _243  and  _244
REMARK  103  A    between atoms: _246  and  _248
REMARK  104  A    between atoms: _248  and  _249
REMARK  105  A    between atoms: _248  and  _251
REMARK  106  A    between atoms: _251  and  _252
REMARK  107  A    between atoms: _252  and  _253
REMARK  108  A    between atoms: _253  and  _254
REMARK  109  A    between atoms: _263  and  _265
REMARK  110  A    between atoms: _265  and  _266
REMARK  111  A    between atoms: _265  and  _268
REMARK  112  A    between atoms: _268  and  _269
REMARK  113  A    between atoms: _274  and  _276
REMARK  114  A    between atoms: _276  and  _277
REMARK  115  A    between atoms: _276  and  _279
REMARK  116  A    between atoms: _279  and  _280
REMARK  117  A    between atoms: _280  and  _281
REMARK  118  A    between atoms: _281  and  _282
REMARK  119  A    between atoms: _291  and  _293
REMARK  120  A    between atoms: _293  and  _294
REMARK  121  A    between atoms: _293  and  _296
REMARK  122  A    between atoms: _296  and  _297
REMARK  123  A    between atoms: _300  and  _302
REMARK  124  A    between atoms: _302  and  _303
REMARK  125  A    between atoms: _302  and  _305
REMARK  126  A    between atoms: _305  and  _306
REMARK  127  A    between atoms: _309  and  _311
REMARK  128  A    between atoms: _311  and  _312
REMARK  129  A    between atoms: _311  and  _314
REMARK  130  A    between atoms: _314  and  _315
REMARK  131  A    between atoms: _318  and  _320
REMARK  132  A    between atoms: _320  and  _321
REMARK  133  A    between atoms: _320  and  _323
REMARK  134  A    between atoms: _323  and  _324
REMARK  135  A    between atoms: _327  and  _329
REMARK  136  A    between atoms: _329  and  _330
REMARK  137  A    between atoms: _332  and  _334
REMARK  138  A    between atoms: _334  and  _335
REMARK  139  A    between atoms: _338  and  _340
REMARK  140  A    between atoms: _340  and  _341
REMARK  141  A    between atoms: _340  and  _343
REMARK  142  A    between atoms: _343  and  _344
REMARK  143  A    between atoms: _347  and  _349
REMARK  144  A    between atoms: _349  and  _350
REMARK  145  A    between atoms: _349  and  _352
REMARK  146  A    between atoms: _352  and  _353
REMARK  147  A    between atoms: _356  and  _358
REMARK  148  A    between atoms: _358  and  _359
REMARK  149  A    between atoms: _358  and  _361
REMARK  150  A    between atoms: _361  and  _362
REMARK  151  A    between atoms: _365  and  _367
REMARK  152  A    between atoms: _367  and  _368
REMARK  153  A    between atoms: _367  and  _370
REMARK  154  A    between atoms: _373  and  _375
REMARK  155  A    between atoms: _375  and  _376
REMARK  156  A    between atoms: _375  and  _378
REMARK  157  A    between atoms: _378  and  _379
REMARK  158  A    between atoms: _382  and  _384
REMARK  159  A    between atoms: _384  and  _385
REMARK  160  A    between atoms: _387  and  _389
REMARK  161  A    between atoms: _389  and  _390
REMARK  162  A    between atoms: _392  and  _394
REMARK  163  A    between atoms: _394  and  _395
REMARK  164  A    between atoms: _394  and  _397
REMARK  165  A    between atoms: _397  and  _398
REMARK  166  A    between atoms: _401  and  _403
REMARK  167  A    between atoms: _403  and  _404
REMARK  168  A    between atoms: _406  and  _408
REMARK  169  A    between atoms: _408  and  _409
REMARK  170  A    between atoms: _411  and  _413
REMARK  171  A    between atoms: _413  and  _414
REMARK  172  A    between atoms: _413  and  _416
REMARK  173  A    between atoms: _416  and  _417
REMARK  174  A    between atoms: _420  and  _422
REMARK  175  A    between atoms: _422  and  _423
REMARK  176  A    between atoms: _422  and  _425
REMARK  177  A    between atoms: _425  and  _426
REMARK  178  A    between atoms: _430  and  _431
REMARK  179  A    between atoms: _436  and  _438
REMARK  180  A    between atoms: _438  and  _439
REMARK  181  A    between atoms: _442  and  _444
REMARK  182  A    between atoms: _444  and  _445
REMARK  183  A    between atoms: _444  and  _447
REMARK  184  A    between atoms: _447  and  _448
REMARK  185  A    between atoms: _453  and  _455
REMARK  186  A    between atoms: _455  and  _456
REMARK  187  A    between atoms: _455  and  _458
REMARK  188  A    between atoms: _458  and  _459
REMARK  189  A    between atoms: _462  and  _464
REMARK  190  A    between atoms: _464  and  _465
REMARK  191  A    between atoms: _464  and  _467
REMARK  192  A    between atoms: _467  and  _468
REMARK  193  A    between atoms: _471  and  _473
REMARK  194  A    between atoms: _473  and  _474
REMARK  195  A    between atoms: _476  and  _478
REMARK  196  A    between atoms: _478  and  _479
REMARK  197  A    between atoms: _478  and  _481
REMARK  198  A    between atoms: _481  and  _482
REMARK  199  A    between atoms: _482  and  _483
REMARK  200  A    between atoms: _483  and  _484
REMARK  201  A    between atoms: _493  and  _495
REMARK  202  A    between atoms: _495  and  _496
REMARK  203  A    between atoms: _495  and  _498
REMARK  204  A    between atoms: _498  and  _499
REMARK                            x       y       z     vdW  Elec       q    Type
REMARK                         _______ _______ _______ _____ _____    ______ ____
ROOT
ATOM      1  O   HOH     1      30.919  23.421  12.232  0.00  0.00    +0.000 OA
ENDROOT
TORSDOF 0
REMARK  Name = ../refined-set-2016/2qd7/2qd7_pocket.pdb
REMARK  204 active torsions:
REMARK  status: ('A' for Active; 'I' for Inactive)
REMARK    1  A    between atoms: _1  and  _3
REMARK    2  A    between atoms: _3  and  _4
REMARK    3  A    between atoms: _3  and  _6
REMARK    4  A    between atoms: _6  and  _7
REMARK    5  A    between atoms: _7  and  _8
REMARK    6  A    between atoms: _8  and  _9
REMARK    7  A    between atoms: _18  and  _20
REMARK    8  A    between atoms: _20  and  _21
REMARK    9  A    between atoms: _20  and  _23
REMARK   10  A    between atoms: _23  and  _24
REMARK   11  A    between atoms: _27  and  _29
REMARK   12  A    between atoms: _29  and  _30
REMARK   13  A    between atoms: _29  and  _32
REMARK   14  A    between atoms: _32  and  _33
REMARK   15  A    between atoms: _36  and  _38
REMARK   16  A    between atoms: _38  and  _39
REMARK   17  A    between atoms: _38  and  _41
REMARK   18  A    between atoms: _41  and  _42
REMARK   19  A    between atoms: _45  and  _47
REMARK   20  A    between atoms: _47  and  _48
REMARK   21  A    between atoms: _47  and  _50
REMARK   22  A    between atoms: _50  and  _51
REMARK   23  A    between atoms: _54  and  _56
REMARK   24  A    between atoms: _56  and  _57
REMARK   25  A    between atoms: _59  and  _61
REMARK   26  A    between atoms: _61  and  _62
REMARK   27  A    between atoms: _65  and  _67
REMARK   28  A    between atoms: _67  and  _68
REMARK   29  A    between atoms: _67  and  _70
REMARK   30  A    between atoms: _70  and  _71
REMARK   31  A    between atoms: _74  and  _76
REMARK   32  A    between atoms: _76  and  _77
REMARK   33  A    between atoms: _76  and  _79
REMARK   34  A    between atoms: _79  and  _80
REMARK   35  A    between atoms: _83  and  _85
REMARK   36  A    between atoms: _85  and  _86
REMARK   37  A    between atoms: _85  and  _88
REMARK   38  A    between atoms: _88  and  _89
REMARK   39  A    between atoms: _92  and  _94
REMARK   40  A    between atoms: _94  and  _95
REMARK   41  A    between atoms: _94  and  _97
REMARK   42  A    between atoms: _100  and  _102
REMARK   43  A    between atoms: _102  and  _103
REMARK   44  A    between atoms: _102  and  _105
REMARK   45  A    between atoms: _105  and  _106
REMARK   46  A    between atoms: _106  and  _107
REMARK   47  A    between atoms: _107  and  _108
REMARK   48  A    between atoms: _108  and  _109
REMARK   49  A    between atoms: _113  and  _115
REMARK   50  A    between atoms: _115  and  _116
REMARK   51  A    between atoms: _115  and  _118
REMARK   52  A    between atoms: _118  and  _119
REMARK   53  A    between atoms: _119  and  _120
REMARK   54  A    between atoms: _122  and  _124
REMARK   55  A    between atoms: _124  and  _125
REMARK   56  A    between atoms: _124  and  _127
REMARK   57  A    between atoms: _127  and  _128
REMARK   58  A    between atoms: _131  and  _133
REMARK   59  A    between atoms: _133  and  _134
REMARK   60  A    between atoms: _136  and  _138
REMARK   61  A    between atoms: _138  and  _139
REMARK   62  A    between atoms: _141  and  _143
REMARK   63  A    between atoms: _143  and  _144
REMARK   64  A    between atoms: _143  and  _146
REMARK   65  A    between atoms: _146  and  _147
REMARK   66  A    between atoms: _150  and  _152
REMARK   67  A    between atoms: _152  and  _153
REMARK   68  A    between atoms: _155  and  _157
REMARK   69  A    between atoms: _157  and  _158
REMARK   70  A    between atoms: _160  and  _162
REMARK   71  A    between atoms: _162  and  _163
REMARK   72  A    between atoms: _162  and  _165
REMARK   73  A    between atoms: _165  and  _166
REMARK   74  A    between atoms: _172  and  _174
REMARK   75  A    between atoms: _174  and  _175
REMARK   76  A    between atoms: _174  and  _177
REMARK   77  A    between atoms: _177  and  _178
REMARK   78  A    between atoms: _181  and  _183
REMARK   79  A    between atoms: _183  and  _184
REMARK   80  A    between atoms: _183  and  _186
REMARK   81  A    between atoms: _186  and  _187
REMARK   82  A    between atoms: _190  and  _192
REMARK   83  A    between atoms: _192  and  _193
REMARK   84  A    between atoms: _192  and  _195
REMARK   85  A    between atoms: _195  and  _196
REMARK   86  A    between atoms: _200  and  _201
REMARK   87  A    between atoms: _206  and  _208
REMARK   88  A    between atoms: _208  and  _209
REMARK   89  A    between atoms: _212  and  _214
REMARK   90  A    between atoms: _214  and  _215
REMARK   91  A    between atoms: _214  and  _217
REMARK   92  A    between atoms: _217  and  _218
REMARK   93  A    between atoms: _223  and  _225
REMARK   94  A    between atoms: _225  and  _226
REMARK   95  A    between atoms: _225  and  _228
REMARK   96  A    between atoms: _228  and  _229
REMARK   97  A    between atoms: _232  and  _234
REMARK   98  A    between atoms: _234  and  _235
REMARK   99  A    between atoms: _234  and  _237
REMARK  100  A    between atoms: _237  and  _238
REMARK  101  A    between atoms: _241  and  _243
REMARK  102  A    between atoms: _243  and  _244
REMARK  103  A    between atoms: _246  and  _248
REMARK  104  A    between atoms: _248  and  _249
REMARK  105  A    between atoms: _248  and  _251
REMARK  106  A    between atoms: _251  and  _252
REMARK  107  A    between atoms: _252  and  _253
REMARK  108  A    between atoms: _253  and  _254
REMARK  109  A    between atoms: _263  and  _265
REMARK  110  A    between atoms: _265  and  _266
REMARK  111  A    between atoms: _265  and  _268
REMARK  112  A    between atoms: _268  and  _269
REMARK  113  A    between atoms: _274  and  _276
REMARK  114  A    between atoms: _276  and  _277
REMARK  115  A    between atoms: _276  and  _279
REMARK  116  A    between atoms: _279  and  _280
REMARK  117  A    between atoms: _280  and  _281
REMARK  118  A    between atoms: _281  and  _282
REMARK  119  A    between atoms: _291  and  _293
REMARK  120  A    between atoms: _293  and  _294
REMARK  121  A    between atoms: _293  and  _296
REMARK  122  A    between atoms: _296  and  _297
REMARK  123  A    between atoms: _300  and  _302
REMARK  124  A    between atoms: _302  and  _303
REMARK  125  A    between atoms: _302  and  _305
REMARK  126  A    between atoms: _305  and  _306
REMARK  127  A    between atoms: _309  and  _311
REMARK  128  A    between atoms: _311  and  _312
REMARK  129  A    between atoms: _311  and  _314
REMARK  130  A    between atoms: _314  and  _315
REMARK  131  A    between atoms: _318  and  _320
REMARK  132  A    between atoms: _320  and  _321
REMARK  133  A    between atoms: _320  and  _323
REMARK  134  A    between atoms: _323  and  _324
REMARK  135  A    between atoms: _327  and  _329
REMARK  136  A    between atoms: _329  and  _330
REMARK  137  A    between atoms: _332  and  _334
REMARK  138  A    between atoms: _334  and  _335
REMARK  139  A    between atoms: _338  and  _340
REMARK  140  A    between atoms: _340  and  _341
REMARK  141  A    between atoms: _340  and  _343
REMARK  142  A    between atoms: _343  and  _344
REMARK  143  A    between atoms: _347  and  _349
REMARK  144  A    between atoms: _349  and  _350
REMARK  145  A    between atoms: _349  and  _352
REMARK  146  A    between atoms: _352  and  _353
REMARK  147  A    between atoms: _356  and  _358
REMARK  148  A    between atoms: _358  and  _359
REMARK  149  A    between atoms: _358  and  _361
REMARK  150  A    between atoms: _361  and  _362
REMARK  151  A    between atoms: _365  and  _367
REMARK  152  A    between atoms: _367  and  _368
REMARK  153  A    between atoms: _367  and  _370
REMARK  154  A    between atoms: _373  and  _375
REMARK  155  A    between atoms: _375  and  _376
REMARK  156  A    between atoms: _375  and  _378
REMARK  157  A    between atoms: _378  and  _379
REMARK  158  A    between atoms: _382  and  _384
REMARK  159  A    between atoms: _384  and  _385
REMARK  160  A    between atoms: _387  and  _389
REMARK  161  A    between atoms: _389  and  _390
REMARK  162  A    between atoms: _392  and  _394
REMARK  163  A    between atoms: _394  and  _395
REMARK  164  A    between atoms: _394  and  _397
REMARK  165  A    between atoms: _397  and  _398
REMARK  166  A    between atoms: _401  and  _403
REMARK  167  A    between atoms: _403  and  _404
REMARK  168  A    between atoms: _406  and  _408
REMARK  169  A    between atoms: _408  and  _409
REMARK  170  A    between atoms: _411  and  _413
REMARK  171  A    between atoms: _413  and  _414
REMARK  172  A    between atoms: _413  and  _416
REMARK  173  A    between atoms: _416  and  _417
REMARK  174  A    between atoms: _420  and  _422
REMARK  175  A    between atoms: _422  and  _423
REMARK  176  A    between atoms: _422  and  _425
REMARK  177  A    between atoms: _425  and  _426
REMARK  178  A    between atoms: _430  and  _431
REMARK  179  A    between atoms: _436  and  _438
REMARK  180  A    between atoms: _438  and  _439
REMARK  181  A    between atoms: _442  and  _444
REMARK  182  A    between atoms: _444  and  _445
REMARK  183  A    between atoms: _444  and  _447
REMARK  184  A    between atoms: _447  and  _448
REMARK  185  A    between atoms: _453  and  _455
REMARK  186  A    between atoms: _455  and  _456
REMARK  187  A    between atoms: _455  and  _458
REMARK  188  A    between atoms: _458  and  _459
REMARK  189  A    between atoms: _462  and  _464
REMARK  190  A    between atoms: _464  and  _465
REMARK  191  A    between atoms: _464  and  _467
REMARK  192  A    between atoms: _467  and  _468
REMARK  193  A    between atoms: _471  and  _473
REMARK  194  A    between atoms: _473  and  _474
REMARK  195  A    between atoms: _476  and  _478
REMARK  196  A    between atoms: _478  and  _479
REMARK  197  A    between atoms: _478  and  _481
REMARK  198  A    between atoms: _481  and  _482
REMARK  199  A    between atoms: _482  and  _483
REMARK  200  A    between atoms: _483  and  _484
REMARK  201  A    between atoms: _493  and  _495
REMARK  202  A    between atoms: _495  and  _496
REMARK  203  A    between atoms: _495  and  _498
REMARK  204  A    between atoms: _498  and  _499
REMARK                            x       y       z     vdW  Elec       q    Type
REMARK                         _______ _______ _______ _____ _____    ______ ____
ROOT
ATOM      1  O   HOH     1      22.866  36.131  20.735  0.00  0.00    +0.000 OA
ENDROOT
TORSDOF 0
REMARK  Name = ../refined-set-2016/2qd7/2qd7_pocket.pdb
REMARK  204 active torsions:
REMARK  status: ('A' for Active; 'I' for Inactive)
REMARK    1  A    between atoms: _1  and  _3
REMARK    2  A    between atoms: _3  and  _4
REMARK    3  A    between atoms: _3  and  _6
REMARK    4  A    between atoms: _6  and  _7
REMARK    5  A    between atoms: _7  and  _8
REMARK    6  A    between atoms: _8  and  _9
REMARK    7  A    between atoms: _18  and  _20
REMARK    8  A    between atoms: _20  and  _21
REMARK    9  A    between atoms: _20  and  _23
REMARK   10  A    between atoms: _23  and  _24
REMARK   11  A    between atoms: _27  and  _29
REMARK   12  A    between atoms: _29  and  _30
REMARK   13  A    between atoms: _29  and  _32
REMARK   14  A    between atoms: _32  and  _33
REMARK   15  A    between atoms: _36  and  _38
REMARK   16  A    between atoms: _38  and  _39
REMARK   17  A    between atoms: _38  and  _41
REMARK   18  A    between atoms: _41  and  _42
REMARK   19  A    between atoms: _45  and  _47
REMARK   20  A    between atoms: _47  and  _48
REMARK   21  A    between atoms: _47  and  _50
REMARK   22  A    between atoms: _50  and  _51
REMARK   23  A    between atoms: _54  and  _56
REMARK   24  A    between atoms: _56  and  _57
REMARK   25  A    between atoms: _59  and  _61
REMARK   26  A    between atoms: _61  and  _62
REMARK   27  A    between atoms: _65  and  _67
REMARK   28  A    between atoms: _67  and  _68
REMARK   29  A    between atoms: _67  and  _70
REMARK   30  A    between atoms: _70  and  _71
REMARK   31  A    between atoms: _74  and  _76
REMARK   32  A    between atoms: _76  and  _77
REMARK   33  A    between atoms: _76  and  _79
REMARK   34  A    between atoms: _79  and  _80
REMARK   35  A    between atoms: _83  and  _85
REMARK   36  A    between atoms: _85  and  _86
REMARK   37  A    between atoms: _85  and  _88
REMARK   38  A    between atoms: _88  and  _89
REMARK   39  A    between atoms: _92  and  _94
REMARK   40  A    between atoms: _94  and  _95
REMARK   41  A    between atoms: _94  and  _97
REMARK   42  A    between atoms: _100  and  _102
REMARK   43  A    between atoms: _102  and  _103
REMARK   44  A    between atoms: _102  and  _105
REMARK   45  A    between atoms: _105  and  _106
REMARK   46  A    between atoms: _106  and  _107
REMARK   47  A    between atoms: _107  and  _108
REMARK   48  A    between atoms: _108  and  _109
REMARK   49  A    between atoms: _113  and  _115
REMARK   50  A    between atoms: _115  and  _116
REMARK   51  A    between atoms: _115  and  _118
REMARK   52  A    between atoms: _118  and  _119
REMARK   53  A    between atoms: _119  and  _120
REMARK   54  A    between atoms: _122  and  _124
REMARK   55  A    between atoms: _124  and  _125
REMARK   56  A    between atoms: _124  and  _127
REMARK   57  A    between atoms: _127  and  _128
REMARK   58  A    between atoms: _131  and  _133
REMARK   59  A    between atoms: _133  and  _134
REMARK   60  A    between atoms: _136  and  _138
REMARK   61  A    between atoms: _138  and  _139
REMARK   62  A    between atoms: _141  and  _143
REMARK   63  A    between atoms: _143  and  _144
REMARK   64  A    between atoms: _143  and  _146
REMARK   65  A    between atoms: _146  and  _147
REMARK   66  A    between atoms: _150  and  _152
REMARK   67  A    between atoms: _152  and  _153
REMARK   68  A    between atoms: _155  and  _157
REMARK   69  A    between atoms: _157  and  _158
REMARK   70  A    between atoms: _160  and  _162
REMARK   71  A    between atoms: _162  and  _163
REMARK   72  A    between atoms: _162  and  _165
REMARK   73  A    between atoms: _165  and  _166
REMARK   74  A    between atoms: _172  and  _174
REMARK   75  A    between atoms: _174  and  _175
REMARK   76  A    between atoms: _174  and  _177
REMARK   77  A    between atoms: _177  and  _178
REMARK   78  A    between atoms: _181  and  _183
REMARK   79  A    between atoms: _183  and  _184
REMARK   80  A    between atoms: _183  and  _186
REMARK   81  A    between atoms: _186  and  _187
REMARK   82  A    between atoms: _190  and  _192
REMARK   83  A    between atoms: _192  and  _193
REMARK   84  A    between atoms: _192  and  _195
REMARK   85  A    between atoms: _195  and  _196
REMARK   86  A    between atoms: _200  and  _201
REMARK   87  A    between atoms: _206  and  _208
REMARK   88  A    between atoms: _208  and  _209
REMARK   89  A    between atoms: _212  and  _214
REMARK   90  A    between atoms: _214  and  _215
REMARK   91  A    between atoms: _214  and  _217
REMARK   92  A    between atoms: _217  and  _218
REMARK   93  A    between atoms: _223  and  _225
REMARK   94  A    between atoms: _225  and  _226
REMARK   95  A    between atoms: _225  and  _228
REMARK   96  A    between atoms: _228  and  _229
REMARK   97  A    between atoms: _232  and  _234
REMARK   98  A    between atoms: _234  and  _235
REMARK   99  A    between atoms: _234  and  _237
REMARK  100  A    between atoms: _237  and  _238
REMARK  101  A    between atoms: _241  and  _243
REMARK  102  A    between atoms: _243  and  _244
REMARK  103  A    between atoms: _246  and  _248
REMARK  104  A    between atoms: _248  and  _249
REMARK  105  A    between atoms: _248  and  _251
REMARK  106  A    between atoms: _251  and  _252
REMARK  107  A    between atoms: _252  and  _253
REMARK  108  A    between atoms: _253  and  _254
REMARK  109  A    between atoms: _263  and  _265
REMARK  110  A    between atoms: _265  and  _266
REMARK  111  A    between atoms: _265  and  _268
REMARK  112  A    between atoms: _268  and  _269
REMARK  113  A    between atoms: _274  and  _276
REMARK  114  A    between atoms: _276  and  _277
REMARK  115  A    between atoms: _276  and  _279
REMARK  116  A    between atoms: _279  and  _280
REMARK  117  A    between atoms: _280  and  _281
REMARK  118  A    between atoms: _281  and  _282
REMARK  119  A    between atoms: _291  and  _293
REMARK  120  A    between atoms: _293  and  _294
REMARK  121  A    between atoms: _293  and  _296
REMARK  122  A    between atoms: _296  and  _297
REMARK  123  A    between atoms: _300  and  _302
REMARK  124  A    between atoms: _302  and  _303
REMARK  125  A    between atoms: _302  and  _305
REMARK  126  A    between atoms: _305  and  _306
REMARK  127  A    between atoms: _309  and  _311
REMARK  128  A    between atoms: _311  and  _312
REMARK  129  A    between atoms: _311  and  _314
REMARK  130  A    between atoms: _314  and  _315
REMARK  131  A    between atoms: _318  and  _320
REMARK  132  A    between atoms: _320  and  _321
REMARK  133  A    between atoms: _320  and  _323
REMARK  134  A    between atoms: _323  and  _324
REMARK  135  A    between atoms: _327  and  _329
REMARK  136  A    between atoms: _329  and  _330
REMARK  137  A    between atoms: _332  and  _334
REMARK  138  A    between atoms: _334  and  _335
REMARK  139  A    between atoms: _338  and  _340
REMARK  140  A    between atoms: _340  and  _341
REMARK  141  A    between atoms: _340  and  _343
REMARK  142  A    between atoms: _343  and  _344
REMARK  143  A    between atoms: _347  and  _349
REMARK  144  A    between atoms: _349  and  _350
REMARK  145  A    between atoms: _349  and  _352
REMARK  146  A    between atoms: _352  and  _353
REMARK  147  A    between atoms: _356  and  _358
REMARK  148  A    between atoms: _358  and  _359
REMARK  149  A    between atoms: _358  and  _361
REMARK  150  A    between atoms: _361  and  _362
REMARK  151  A    between atoms: _365  and  _367
REMARK  152  A    between atoms: _367  and  _368
REMARK  153  A    between atoms: _367  and  _370
REMARK  154  A    between atoms: _373  and  _375
REMARK  155  A    between atoms: _375  and  _376
REMARK  156  A    between atoms: _375  and  _378
REMARK  157  A    between atoms: _378  and  _379
REMARK  158  A    between atoms: _382  and  _384
REMARK  159  A    between atoms: _384  and  _385
REMARK  160  A    between atoms: _387  and  _389
REMARK  161  A    between atoms: _389  and  _390
REMARK  162  A    between atoms: _392  and  _394
REMARK  163  A    between atoms: _394  and  _395
REMARK  164  A    between atoms: _394  and  _397
REMARK  165  A    between atoms: _397  and  _398
REMARK  166  A    between atoms: _401  and  _403
REMARK  167  A    between atoms: _403  and  _404
REMARK  168  A    between atoms: _406  and  _408
REMARK  169  A    between atoms: _408  and  _409
REMARK  170  A    between atoms: _411  and  _413
REMARK  171  A    between atoms: _413  and  _414
REMARK  172  A    between atoms: _413  and  _416
REMARK  173  A    between atoms: _416  and  _417
REMARK  174  A    between atoms: _420  and  _422
REMARK  175  A    between atoms: _422  and  _423
REMARK  176  A    between atoms: _422  and  _425
REMARK  177  A    between atoms: _425  and  _426
REMARK  178  A    between atoms: _430  and  _431
REMARK  179  A    between atoms: _436  and  _438
REMARK  180  A    between atoms: _438  and  _439
REMARK  181  A    between atoms: _442  and  _444
REMARK  182  A    between atoms: _444  and  _445
REMARK  183  A    between atoms: _444  and  _447
REMARK  184  A    between atoms: _447  and  _448
REMARK  185  A    between atoms: _453  and  _455
REMARK  186  A    between atoms: _455  and  _456
REMARK  187  A    between atoms: _455  and  _458
REMARK  188  A    between atoms: _458  and  _459
REMARK  189  A    between atoms: _462  and  _464
REMARK  190  A    between atoms: _464  and  _465
REMARK  191  A    between atoms: _464  and  _467
REMARK  192  A    between atoms: _467  and  _468
REMARK  193  A    between atoms: _471  and  _473
REMARK  194  A    between atoms: _473  and  _474
REMARK  195  A    between atoms: _476  and  _478
REMARK  196  A    between atoms: _478  and  _479
REMARK  197  A    between atoms: _478  and  _481
REMARK  198  A    between atoms: _481  and  _482
REMARK  199  A    between atoms: _482  and  _483
REMARK  200  A    between atoms: _483  and  _484
REMARK  201  A    between atoms: _493  and  _495
REMARK  202  A    between atoms: _495  and  _496
REMARK  203  A    between atoms: _495  and  _498
REMARK  204  A    between atoms: _498  and  _499
REMARK                            x       y       z     vdW  Elec       q    Type
REMARK                         _______ _______ _______ _____ _____    ______ ____
ROOT
ATOM      1  O   HOH     1      23.281  25.382   5.410  0.00  0.00    +0.000 OA
ENDROOT
TORSDOF 0
REMARK  Name = ../refined-set-2016/2qd7/2qd7_pocket.pdb
REMARK  204 active torsions:
REMARK  status: ('A' for Active; 'I' for Inactive)
REMARK    1  A    between atoms: _1  and  _3
REMARK    2  A    between atoms: _3  and  _4
REMARK    3  A    between atoms: _3  and  _6
REMARK    4  A    between atoms: _6  and  _7
REMARK    5  A    between atoms: _7  and  _8
REMARK    6  A    between atoms: _8  and  _9
REMARK    7  A    between atoms: _18  and  _20
REMARK    8  A    between atoms: _20  and  _21
REMARK    9  A    between atoms: _20  and  _23
REMARK   10  A    between atoms: _23  and  _24
REMARK   11  A    between atoms: _27  and  _29
REMARK   12  A    between atoms: _29  and  _30
REMARK   13  A    between atoms: _29  and  _32
REMARK   14  A    between atoms: _32  and  _33
REMARK   15  A    between atoms: _36  and  _38
REMARK   16  A    between atoms: _38  and  _39
REMARK   17  A    between atoms: _38  and  _41
REMARK   18  A    between atoms: _41  and  _42
REMARK   19  A    between atoms: _45  and  _47
REMARK   20  A    between atoms: _47  and  _48
REMARK   21  A    between atoms: _47  and  _50
REMARK   22  A    between atoms: _50  and  _51
REMARK   23  A    between atoms: _54  and  _56
REMARK   24  A    between atoms: _56  and  _57
REMARK   25  A    between atoms: _59  and  _61
REMARK   26  A    between atoms: _61  and  _62
REMARK   27  A    between atoms: _65  and  _67
REMARK   28  A    between atoms: _67  and  _68
REMARK   29  A    between atoms: _67  and  _70
REMARK   30  A    between atoms: _70  and  _71
REMARK   31  A    between atoms: _74  and  _76
REMARK   32  A    between atoms: _76  and  _77
REMARK   33  A    between atoms: _76  and  _79
REMARK   34  A    between atoms: _79  and  _80
REMARK   35  A    between atoms: _83  and  _85
REMARK   36  A    between atoms: _85  and  _86
REMARK   37  A    between atoms: _85  and  _88
REMARK   38  A    between atoms: _88  and  _89
REMARK   39  A    between atoms: _92  and  _94
REMARK   40  A    between atoms: _94  and  _95
REMARK   41  A    between atoms: _94  and  _97
REMARK   42  A    between atoms: _100  and  _102
REMARK   43  A    between atoms: _102  and  _103
REMARK   44  A    between atoms: _102  and  _105
REMARK   45  A    between atoms: _105  and  _106
REMARK   46  A    between atoms: _106  and  _107
REMARK   47  A    between atoms: _107  and  _108
REMARK   48  A    between atoms: _108  and  _109
REMARK   49  A    between atoms: _113  and  _115
REMARK   50  A    between atoms: _115  and  _116
REMARK   51  A    between atoms: _115  and  _118
REMARK   52  A    between atoms: _118  and  _119
REMARK   53  A    between atoms: _119  and  _120
REMARK   54  A    between atoms: _122  and  _124
REMARK   55  A    between atoms: _124  and  _125
REMARK   56  A    between atoms: _124  and  _127
REMARK   57  A    between atoms: _127  and  _128
REMARK   58  A    between atoms: _131  and  _133
REMARK   59  A    between atoms: _133  and  _134
REMARK   60  A    between atoms: _136  and  _138
REMARK   61  A    between atoms: _138  and  _139
REMARK   62  A    between atoms: _141  and  _143
REMARK   63  A    between atoms: _143  and  _144
REMARK   64  A    between atoms: _143  and  _146
REMARK   65  A    between atoms: _146  and  _147
REMARK   66  A    between atoms: _150  and  _152
REMARK   67  A    between atoms: _152  and  _153
REMARK   68  A    between atoms: _155  and  _157
REMARK   69  A    between atoms: _157  and  _158
REMARK   70  A    between atoms: _160  and  _162
REMARK   71  A    between atoms: _162  and  _163
REMARK   72  A    between atoms: _162  and  _165
REMARK   73  A    between atoms: _165  and  _166
REMARK   74  A    between atoms: _172  and  _174
REMARK   75  A    between atoms: _174  and  _175
REMARK   76  A    between atoms: _174  and  _177
REMARK   77  A    between atoms: _177  and  _178
REMARK   78  A    between atoms: _181  and  _183
REMARK   79  A    between atoms: _183  and  _184
REMARK   80  A    between atoms: _183  and  _186
REMARK   81  A    between atoms: _186  and  _187
REMARK   82  A    between atoms: _190  and  _192
REMARK   83  A    between atoms: _192  and  _193
REMARK   84  A    between atoms: _192  and  _195
REMARK   85  A    between atoms: _195  and  _196
REMARK   86  A    between atoms: _200  and  _201
REMARK   87  A    between atoms: _206  and  _208
REMARK   88  A    between atoms: _208  and  _209
REMARK   89  A    between atoms: _212  and  _214
REMARK   90  A    between atoms: _214  and  _215
REMARK   91  A    between atoms: _214  and  _217
REMARK   92  A    between atoms: _217  and  _218
REMARK   93  A    between atoms: _223  and  _225
REMARK   94  A    between atoms: _225  and  _226
REMARK   95  A    between atoms: _225  and  _228
REMARK   96  A    between atoms: _228  and  _229
REMARK   97  A    between atoms: _232  and  _234
REMARK   98  A    between atoms: _234  and  _235
REMARK   99  A    between atoms: _234  and  _237
REMARK  100  A    between atoms: _237  and  _238
REMARK  101  A    between atoms: _241  and  _243
REMARK  102  A    between atoms: _243  and  _244
REMARK  103  A    between atoms: _246  and  _248
REMARK  104  A    between atoms: _248  and  _249
REMARK  105  A    between atoms: _248  and  _251
REMARK  106  A    between atoms: _251  and  _252
REMARK  107  A    between atoms: _252  and  _253
REMARK  108  A    between atoms: _253  and  _254
REMARK  109  A    between atoms: _263  and  _265
REMARK  110  A    between atoms: _265  and  _266
REMARK  111  A    between atoms: _265  and  _268
REMARK  112  A    between atoms: _268  and  _269
REMARK  113  A    between atoms: _274  and  _276
REMARK  114  A    between atoms: _276  and  _277
REMARK  115  A    between atoms: _276  and  _279
REMARK  116  A    between atoms: _279  and  _280
REMARK  117  A    between atoms: _280  and  _281
REMARK  118  A    between atoms: _281  and  _282
REMARK  119  A    between atoms: _291  and  _293
REMARK  120  A    between atoms: _293  and  _294
REMARK  121  A    between atoms: _293  and  _296
REMARK  122  A    between atoms: _296  and  _297
REMARK  123  A    between atoms: _300  and  _302
REMARK  124  A    between atoms: _302  and  _303
REMARK  125  A    between atoms: _302  and  _305
REMARK  126  A    between atoms: _305  and  _306
REMARK  127  A    between atoms: _309  and  _311
REMARK  128  A    between atoms: _311  and  _312
REMARK  129  A    between atoms: _311  and  _314
REMARK  130  A    between atoms: _314  and  _315
REMARK  131  A    between atoms: _318  and  _320
REMARK  132  A    between atoms: _320  and  _321
REMARK  133  A    between atoms: _320  and  _323
REMARK  134  A    between atoms: _323  and  _324
REMARK  135  A    between atoms: _327  and  _329
REMARK  136  A    between atoms: _329  and  _330
REMARK  137  A    between atoms: _332  and  _334
REMARK  138  A    between atoms: _334  and  _335
REMARK  139  A    between atoms: _338  and  _340
REMARK  140  A    between atoms: _340  and  _341
REMARK  141  A    between atoms: _340  and  _343
REMARK  142  A    between atoms: _343  and  _344
REMARK  143  A    between atoms: _347  and  _349
REMARK  144  A    between atoms: _349  and  _350
REMARK  145  A    between atoms: _349  and  _352
REMARK  146  A    between atoms: _352  and  _353
REMARK  147  A    between atoms: _356  and  _358
REMARK  148  A    between atoms: _358  and  _359
REMARK  149  A    between atoms: _358  and  _361
REMARK  150  A    between atoms: _361  and  _362
REMARK  151  A    between atoms: _365  and  _367
REMARK  152  A    between atoms: _367  and  _368
REMARK  153  A    between atoms: _367  and  _370
REMARK  154  A    between atoms: _373  and  _375
REMARK  155  A    between atoms: _375  and  _376
REMARK  156  A    between atoms: _375  and  _378
REMARK  157  A    between atoms: _378  and  _379
REMARK  158  A    between atoms: _382  and  _384
REMARK  159  A    between atoms: _384  and  _385
REMARK  160  A    between atoms: _387  and  _389
REMARK  161  A    between atoms: _389  and  _390
REMARK  162  A    between atoms: _392  and  _394
REMARK  163  A    between atoms: _394  and  _395
REMARK  164  A    between atoms: _394  and  _397
REMARK  165  A    between atoms: _397  and  _398
REMARK  166  A    between atoms: _401  and  _403
REMARK  167  A    between atoms: _403  and  _404
REMARK  168  A    between atoms: _406  and  _408
REMARK  169  A    between atoms: _408  and  _409
REMARK  170  A    between atoms: _411  and  _413
REMARK  171  A    between atoms: _413  and  _414
REMARK  172  A    between atoms: _413  and  _416
REMARK  173  A    between atoms: _416  and  _417
REMARK  174  A    between atoms: _420  and  _422
REMARK  175  A    between atoms: _422  and  _423
REMARK  176  A    between atoms: _422  and  _425
REMARK  177  A    between atoms: _425  and  _426
REMARK  178  A    between atoms: _430  and  _431
REMARK  179  A    between atoms: _436  and  _438
REMARK  180  A    between atoms: _438  and  _439
REMARK  181  A    between atoms: _442  and  _444
REMARK  182  A    between atoms: _444  and  _445
REMARK  183  A    between atoms: _444  and  _447
REMARK  184  A    between atoms: _447  and  _448
REMARK  185  A    between atoms: _453  and  _455
REMARK  186  A    between atoms: _455  and  _456
REMARK  187  A    between atoms: _455  and  _458
REMARK  188  A    between atoms: _458  and  _459
REMARK  189  A    between atoms: _462  and  _464
REMARK  190  A    between atoms: _464  and  _465
REMARK  191  A    between atoms: _464  and  _467
REMARK  192  A    between atoms: _467  and  _468
REMARK  193  A    between atoms: _471  and  _473
REMARK  194  A    between atoms: _473  and  _474
REMARK  195  A    between atoms: _476  and  _478
REMARK  196  A    between atoms: _478  and  _479
REMARK  197  A    between atoms: _478  and  _481
REMARK  198  A    between atoms: _481  and  _482
REMARK  199  A    between atoms: _482  and  _483
REMARK  200  A    between atoms: _483  and  _484
REMARK  201  A    between atoms: _493  and  _495
REMARK  202  A    between atoms: _495  and  _496
REMARK  203  A    between atoms: _495  and  _498
REMARK  204  A    between atoms: _498  and  _499
REMARK                            x       y       z     vdW  Elec       q    Type
REMARK                         _______ _______ _______ _____ _____    ______ ____
ROOT
ATOM      1  O   HOH     1      25.924  18.487  13.559  0.00  0.00    +0.000 OA
ENDROOT
TORSDOF 0
REMARK  Name = ../refined-set-2016/2qd7/2qd7_pocket.pdb
REMARK  204 active torsions:
REMARK  status: ('A' for Active; 'I' for Inactive)
REMARK    1  A    between atoms: _1  and  _3
REMARK    2  A    between atoms: _3  and  _4
REMARK    3  A    between atoms: _3  and  _6
REMARK    4  A    between atoms: _6  and  _7
REMARK    5  A    between atoms: _7  and  _8
REMARK    6  A    between atoms: _8  and  _9
REMARK    7  A    between atoms: _18  and  _20
REMARK    8  A    between atoms: _20  and  _21
REMARK    9  A    between atoms: _20  and  _23
REMARK   10  A    between atoms: _23  and  _24
REMARK   11  A    between atoms: _27  and  _29
REMARK   12  A    between atoms: _29  and  _30
REMARK   13  A    between atoms: _29  and  _32
REMARK   14  A    between atoms: _32  and  _33
REMARK   15  A    between atoms: _36  and  _38
REMARK   16  A    between atoms: _38  and  _39
REMARK   17  A    between atoms: _38  and  _41
REMARK   18  A    between atoms: _41  and  _42
REMARK   19  A    between atoms: _45  and  _47
REMARK   20  A    between atoms: _47  and  _48
REMARK   21  A    between atoms: _47  and  _50
REMARK   22  A    between atoms: _50  and  _51
REMARK   23  A    between atoms: _54  and  _56
REMARK   24  A    between atoms: _56  and  _57
REMARK   25  A    between atoms: _59  and  _61
REMARK   26  A    between atoms: _61  and  _62
REMARK   27  A    between atoms: _65  and  _67
REMARK   28  A    between atoms: _67  and  _68
REMARK   29  A    between atoms: _67  and  _70
REMARK   30  A    between atoms: _70  and  _71
REMARK   31  A    between atoms: _74  and  _76
REMARK   32  A    between atoms: _76  and  _77
REMARK   33  A    between atoms: _76  and  _79
REMARK   34  A    between atoms: _79  and  _80
REMARK   35  A    between atoms: _83  and  _85
REMARK   36  A    between atoms: _85  and  _86
REMARK   37  A    between atoms: _85  and  _88
REMARK   38  A    between atoms: _88  and  _89
REMARK   39  A    between atoms: _92  and  _94
REMARK   40  A    between atoms: _94  and  _95
REMARK   41  A    between atoms: _94  and  _97
REMARK   42  A    between atoms: _100  and  _102
REMARK   43  A    between atoms: _102  and  _103
REMARK   44  A    between atoms: _102  and  _105
REMARK   45  A    between atoms: _105  and  _106
REMARK   46  A    between atoms: _106  and  _107
REMARK   47  A    between atoms: _107  and  _108
REMARK   48  A    between atoms: _108  and  _109
REMARK   49  A    between atoms: _113  and  _115
REMARK   50  A    between atoms: _115  and  _116
REMARK   51  A    between atoms: _115  and  _118
REMARK   52  A    between atoms: _118  and  _119
REMARK   53  A    between atoms: _119  and  _120
REMARK   54  A    between atoms: _122  and  _124
REMARK   55  A    between atoms: _124  and  _125
REMARK   56  A    between atoms: _124  and  _127
REMARK   57  A    between atoms: _127  and  _128
REMARK   58  A    between atoms: _131  and  _133
REMARK   59  A    between atoms: _133  and  _134
REMARK   60  A    between atoms: _136  and  _138
REMARK   61  A    between atoms: _138  and  _139
REMARK   62  A    between atoms: _141  and  _143
REMARK   63  A    between atoms: _143  and  _144
REMARK   64  A    between atoms: _143  and  _146
REMARK   65  A    between atoms: _146  and  _147
REMARK   66  A    between atoms: _150  and  _152
REMARK   67  A    between atoms: _152  and  _153
REMARK   68  A    between atoms: _155  and  _157
REMARK   69  A    between atoms: _157  and  _158
REMARK   70  A    between atoms: _160  and  _162
REMARK   71  A    between atoms: _162  and  _163
REMARK   72  A    between atoms: _162  and  _165
REMARK   73  A    between atoms: _165  and  _166
REMARK   74  A    between atoms: _172  and  _174
REMARK   75  A    between atoms: _174  and  _175
REMARK   76  A    between atoms: _174  and  _177
REMARK   77  A    between atoms: _177  and  _178
REMARK   78  A    between atoms: _181  and  _183
REMARK   79  A    between atoms: _183  and  _184
REMARK   80  A    between atoms: _183  and  _186
REMARK   81  A    between atoms: _186  and  _187
REMARK   82  A    between atoms: _190  and  _192
REMARK   83  A    between atoms: _192  and  _193
REMARK   84  A    between atoms: _192  and  _195
REMARK   85  A    between atoms: _195  and  _196
REMARK   86  A    between atoms: _200  and  _201
REMARK   87  A    between atoms: _206  and  _208
REMARK   88  A    between atoms: _208  and  _209
REMARK   89  A    between atoms: _212  and  _214
REMARK   90  A    between atoms: _214  and  _215
REMARK   91  A    between atoms: _214  and  _217
REMARK   92  A    between atoms: _217  and  _218
REMARK   93  A    between atoms: _223  and  _225
REMARK   94  A    between atoms: _225  and  _226
REMARK   95  A    between atoms: _225  and  _228
REMARK   96  A    between atoms: _228  and  _229
REMARK   97  A    between atoms: _232  and  _234
REMARK   98  A    between atoms: _234  and  _235
REMARK   99  A    between atoms: _234  and  _237
REMARK  100  A    between atoms: _237  and  _238
REMARK  101  A    between atoms: _241  and  _243
REMARK  102  A    between atoms: _243  and  _244
REMARK  103  A    between atoms: _246  and  _248
REMARK  104  A    between atoms: _248  and  _249
REMARK  105  A    between atoms: _248  and  _251
REMARK  106  A    between atoms: _251  and  _252
REMARK  107  A    between atoms: _252  and  _253
REMARK  108  A    between atoms: _253  and  _254
REMARK  109  A    between atoms: _263  and  _265
REMARK  110  A    between atoms: _265  and  _266
REMARK  111  A    between atoms: _265  and  _268
REMARK  112  A    between atoms: _268  and  _269
REMARK  113  A    between atoms: _274  and  _276
REMARK  114  A    between atoms: _276  and  _277
REMARK  115  A    between atoms: _276  and  _279
REMARK  116  A    between atoms: _279  and  _280
REMARK  117  A    between atoms: _280  and  _281
REMARK  118  A    between atoms: _281  and  _282
REMARK  119  A    between atoms: _291  and  _293
REMARK  120  A    between atoms: _293  and  _294
REMARK  121  A    between atoms: _293  and  _296
REMARK  122  A    between atoms: _296  and  _297
REMARK  123  A    between atoms: _300  and  _302
REMARK  124  A    between atoms: _302  and  _303
REMARK  125  A    between atoms: _302  and  _305
REMARK  126  A    between atoms: _305  and  _306
REMARK  127  A    between atoms: _309  and  _311
REMARK  128  A    between atoms: _311  and  _312
REMARK  129  A    between atoms: _311  and  _314
REMARK  130  A    between atoms: _314  and  _315
REMARK  131  A    between atoms: _318  and  _320
REMARK  132  A    between atoms: _320  and  _321
REMARK  133  A    between atoms: _320  and  _323
REMARK  134  A    between atoms: _323  and  _324
REMARK  135  A    between atoms: _327  and  _329
REMARK  136  A    between atoms: _329  and  _330
REMARK  137  A    between atoms: _332  and  _334
REMARK  138  A    between atoms: _334  and  _335
REMARK  139  A    between atoms: _338  and  _340
REMARK  140  A    between atoms: _340  and  _341
REMARK  141  A    between atoms: _340  and  _343
REMARK  142  A    between atoms: _343  and  _344
REMARK  143  A    between atoms: _347  and  _349
REMARK  144  A    between atoms: _349  and  _350
REMARK  145  A    between atoms: _349  and  _352
REMARK  146  A    between atoms: _352  and  _353
REMARK  147  A    between atoms: _356  and  _358
REMARK  148  A    between atoms: _358  and  _359
REMARK  149  A    between atoms: _358  and  _361
REMARK  150  A    between atoms: _361  and  _362
REMARK  151  A    between atoms: _365  and  _367
REMARK  152  A    between atoms: _367  and  _368
REMARK  153  A    between atoms: _367  and  _370
REMARK  154  A    between atoms: _373  and  _375
REMARK  155  A    between atoms: _375  and  _376
REMARK  156  A    between atoms: _375  and  _378
REMARK  157  A    between atoms: _378  and  _379
REMARK  158  A    between atoms: _382  and  _384
REMARK  159  A    between atoms: _384  and  _385
REMARK  160  A    between atoms: _387  and  _389
REMARK  161  A    between atoms: _389  and  _390
REMARK  162  A    between atoms: _392  and  _394
REMARK  163  A    between atoms: _394  and  _395
REMARK  164  A    between atoms: _394  and  _397
REMARK  165  A    between atoms: _397  and  _398
REMARK  166  A    between atoms: _401  and  _403
REMARK  167  A    between atoms: _403  and  _404
REMARK  168  A    between atoms: _406  and  _408
REMARK  169  A    between atoms: _408  and  _409
REMARK  170  A    between atoms: _411  and  _413
REMARK  171  A    between atoms: _413  and  _414
REMARK  172  A    between atoms: _413  and  _416
REMARK  173  A    between atoms: _416  and  _417
REMARK  174  A    between atoms: _420  and  _422
REMARK  175  A    between atoms: _422  and  _423
REMARK  176  A    between atoms: _422  and  _425
REMARK  177  A    between atoms: _425  and  _426
REMARK  178  A    between atoms: _430  and  _431
REMARK  179  A    between atoms: _436  and  _438
REMARK  180  A    between atoms: _438  and  _439
REMARK  181  A    between atoms: _442  and  _444
REMARK  182  A    between atoms: _444  and  _445
REMARK  183  A    between atoms: _444  and  _447
REMARK  184  A    between atoms: _447  and  _448
REMARK  185  A    between atoms: _453  and  _455
REMARK  186  A    between atoms: _455  and  _456
REMARK  187  A    between atoms: _455  and  _458
REMARK  188  A    between atoms: _458  and  _459
REMARK  189  A    between atoms: _462  and  _464
REMARK  190  A    between atoms: _464  and  _465
REMARK  191  A    between atoms: _464  and  _467
REMARK  192  A    between atoms: _467  and  _468
REMARK  193  A    between atoms: _471  and  _473
REMARK  194  A    between atoms: _473  and  _474
REMARK  195  A    between atoms: _476  and  _478
REMARK  196  A    between atoms: _478  and  _479
REMARK  197  A    between atoms: _478  and  _481
REMARK  198  A    between atoms: _481  and  _482
REMARK  199  A    between atoms: _482  and  _483
REMARK  200  A    between atoms: _483  and  _484
REMARK  201  A    between atoms: _493  and  _495
REMARK  202  A    between atoms: _495  and  _496
REMARK  203  A    between atoms: _495  and  _498
REMARK  204  A    between atoms: _498  and  _499
REMARK                            x       y       z     vdW  Elec       q    Type
REMARK                         _______ _______ _______ _____ _____    ______ ____
ROOT
ATOM      1  O   UNL     1      27.825  34.768  20.835  0.00  0.00    +0.000 OA
ATOM      2  O   UNL     1      28.734  35.445  21.370  0.00  0.00    +0.000 OA
ENDROOT
TORSDOF 0
REMARK  Name = ../refined-set-2016/2qd7/2qd7_pocket.pdb
REMARK  204 active torsions:
REMARK  status: ('A' for Active; 'I' for Inactive)
REMARK    1  A    between atoms: _1  and  _3
REMARK    2  A    between atoms: _3  and  _4
REMARK    3  A    between atoms: _3  and  _6
REMARK    4  A    between atoms: _6  and  _7
REMARK    5  A    between atoms: _7  and  _8
REMARK    6  A    between atoms: _8  and  _9
REMARK    7  A    between atoms: _18  and  _20
REMARK    8  A    between atoms: _20  and  _21
REMARK    9  A    between atoms: _20  and  _23
REMARK   10  A    between atoms: _23  and  _24
REMARK   11  A    between atoms: _27  and  _29
REMARK   12  A    between atoms: _29  and  _30
REMARK   13  A    between atoms: _29  and  _32
REMARK   14  A    between atoms: _32  and  _33
REMARK   15  A    between atoms: _36  and  _38
REMARK   16  A    between atoms: _38  and  _39
REMARK   17  A    between atoms: _38  and  _41
REMARK   18  A    between atoms: _41  and  _42
REMARK   19  A    between atoms: _45  and  _47
REMARK   20  A    between atoms: _47  and  _48
REMARK   21  A    between atoms: _47  and  _50
REMARK   22  A    between atoms: _50  and  _51
REMARK   23  A    between atoms: _54  and  _56
REMARK   24  A    between atoms: _56  and  _57
REMARK   25  A    between atoms: _59  and  _61
REMARK   26  A    between atoms: _61  and  _62
REMARK   27  A    between atoms: _65  and  _67
REMARK   28  A    between atoms: _67  and  _68
REMARK   29  A    between atoms: _67  and  _70
REMARK   30  A    between atoms: _70  and  _71
REMARK   31  A    between atoms: _74  and  _76
REMARK   32  A    between atoms: _76  and  _77
REMARK   33  A    between atoms: _76  and  _79
REMARK   34  A    between atoms: _79  and  _80
REMARK   35  A    between atoms: _83  and  _85
REMARK   36  A    between atoms: _85  and  _86
REMARK   37  A    between atoms: _85  and  _88
REMARK   38  A    between atoms: _88  and  _89
REMARK   39  A    between atoms: _92  and  _94
REMARK   40  A    between atoms: _94  and  _95
REMARK   41  A    between atoms: _94  and  _97
REMARK   42  A    between atoms: _100  and  _102
REMARK   43  A    between atoms: _102  and  _103
REMARK   44  A    between atoms: _102  and  _105
REMARK   45  A    between atoms: _105  and  _106
REMARK   46  A    between atoms: _106  and  _107
REMARK   47  A    between atoms: _107  and  _108
REMARK   48  A    between atoms: _108  and  _109
REMARK   49  A    between atoms: _113  and  _115
REMARK   50  A    between atoms: _115  and  _116
REMARK   51  A    between atoms: _115  and  _118
REMARK   52  A    between atoms: _118  and  _119
REMARK   53  A    between atoms: _119  and  _120
REMARK   54  A    between atoms: _122  and  _124
REMARK   55  A    between atoms: _124  and  _125
REMARK   56  A    between atoms: _124  and  _127
REMARK   57  A    between atoms: _127  and  _128
REMARK   58  A    between atoms: _131  and  _133
REMARK   59  A    between atoms: _133  and  _134
REMARK   60  A    between atoms: _136  and  _138
REMARK   61  A    between atoms: _138  and  _139
REMARK   62  A    between atoms: _141  and  _143
REMARK   63  A    between atoms: _143  and  _144
REMARK   64  A    between atoms: _143  and  _146
REMARK   65  A    between atoms: _146  and  _147
REMARK   66  A    between atoms: _150  and  _152
REMARK   67  A    between atoms: _152  and  _153
REMARK   68  A    between atoms: _155  and  _157
REMARK   69  A    between atoms: _157  and  _158
REMARK   70  A    between atoms: _160  and  _162
REMARK   71  A    between atoms: _162  and  _163
REMARK   72  A    between atoms: _162  and  _165
REMARK   73  A    between atoms: _165  and  _166
REMARK   74  A    between atoms: _172  and  _174
REMARK   75  A    between atoms: _174  and  _175
REMARK   76  A    between atoms: _174  and  _177
REMARK   77  A    between atoms: _177  and  _178
REMARK   78  A    between atoms: _181  and  _183
REMARK   79  A    between atoms: _183  and  _184
REMARK   80  A    between atoms: _183  and  _186
REMARK   81  A    between atoms: _186  and  _187
REMARK   82  A    between atoms: _190  and  _192
REMARK   83  A    between atoms: _192  and  _193
REMARK   84  A    between atoms: _192  and  _195
REMARK   85  A    between atoms: _195  and  _196
REMARK   86  A    between atoms: _200  and  _201
REMARK   87  A    between atoms: _206  and  _208
REMARK   88  A    between atoms: _208  and  _209
REMARK   89  A    between atoms: _212  and  _214
REMARK   90  A    between atoms: _214  and  _215
REMARK   91  A    between atoms: _214  and  _217
REMARK   92  A    between atoms: _217  and  _218
REMARK   93  A    between atoms: _223  and  _225
REMARK   94  A    between atoms: _225  and  _226
REMARK   95  A    between atoms: _225  and  _228
REMARK   96  A    between atoms: _228  and  _229
REMARK   97  A    between atoms: _232  and  _234
REMARK   98  A    between atoms: _234  and  _235
REMARK   99  A    between atoms: _234  and  _237
REMARK  100  A    between atoms: _237  and  _238
REMARK  101  A    between atoms: _241  and  _243
REMARK  102  A    between atoms: _243  and  _244
REMARK  103  A    between atoms: _246  and  _248
REMARK  104  A    between atoms: _248  and  _249
REMARK  105  A    between atoms: _248  and  _251
REMARK  106  A    between atoms: _251  and  _252
REMARK  107  A    between atoms: _252  and  _253
REMARK  108  A    between atoms: _253  and  _254
REMARK  109  A    between atoms: _263  and  _265
REMARK  110  A    between atoms: _265  and  _266
REMARK  111  A    between atoms: _265  and  _268
REMARK  112  A    between atoms: _268  and  _269
REMARK  113  A    between atoms: _274  and  _276
REMARK  114  A    between atoms: _276  and  _277
REMARK  115  A    between atoms: _276  and  _279
REMARK  116  A    between atoms: _279  and  _280
REMARK  117  A    between atoms: _280  and  _281
REMARK  118  A    between atoms: _281  and  _282
REMARK  119  A    between atoms: _291  and  _293
REMARK  120  A    between atoms: _293  and  _294
REMARK  121  A    between atoms: _293  and  _296
REMARK  122  A    between atoms: _296  and  _297
REMARK  123  A    between atoms: _300  and  _302
REMARK  124  A    between atoms: _302  and  _303
REMARK  125  A    between atoms: _302  and  _305
REMARK  126  A    between atoms: _305  and  _306
REMARK  127  A    between atoms: _309  and  _311
REMARK  128  A    between atoms: _311  and  _312
REMARK  129  A    between atoms: _311  and  _314
REMARK  130  A    between atoms: _314  and  _315
REMARK  131  A    between atoms: _318  and  _320
REMARK  132  A    between atoms: _320  and  _321
REMARK  133  A    between atoms: _320  and  _323
REMARK  134  A    between atoms: _323  and  _324
REMARK  135  A    between atoms: _327  and  _329
REMARK  136  A    between atoms: _329  and  _330
REMARK  137  A    between atoms: _332  and  _334
REMARK  138  A    between atoms: _334  and  _335
REMARK  139  A    between atoms: _338  and  _340
REMARK  140  A    between atoms: _340  and  _341
REMARK  141  A    between atoms: _340  and  _343
REMARK  142  A    between atoms: _343  and  _344
REMARK  143  A    between atoms: _347  and  _349
REMARK  144  A    between atoms: _349  and  _350
REMARK  145  A    between atoms: _349  and  _352
REMARK  146  A    between atoms: _352  and  _353
REMARK  147  A    between atoms: _356  and  _358
REMARK  148  A    between atoms: _358  and  _359
REMARK  149  A    between atoms: _358  and  _361
REMARK  150  A    between atoms: _361  and  _362
REMARK  151  A    between atoms: _365  and  _367
REMARK  152  A    between atoms: _367  and  _368
REMARK  153  A    between atoms: _367  and  _370
REMARK  154  A    between atoms: _373  and  _375
REMARK  155  A    between atoms: _375  and  _376
REMARK  156  A    between atoms: _375  and  _378
REMARK  157  A    between atoms: _378  and  _379
REMARK  158  A    between atoms: _382  and  _384
REMARK  159  A    between atoms: _384  and  _385
REMARK  160  A    between atoms: _387  and  _389
REMARK  161  A    between atoms: _389  and  _390
REMARK  162  A    between atoms: _392  and  _394
REMARK  163  A    between atoms: _394  and  _395
REMARK  164  A    between atoms: _394  and  _397
REMARK  165  A    between atoms: _397  and  _398
REMARK  166  A    between atoms: _401  and  _403
REMARK  167  A    between atoms: _403  and  _404
REMARK  168  A    between atoms: _406  and  _408
REMARK  169  A    between atoms: _408  and  _409
REMARK  170  A    between atoms: _411  and  _413
REMARK  171  A    between atoms: _413  and  _414
REMARK  172  A    between atoms: _413  and  _416
REMARK  173  A    between atoms: _416  and  _417
REMARK  174  A    between atoms: _420  and  _422
REMARK  175  A    between atoms: _422  and  _423
REMARK  176  A    between atoms: _422  and  _425
REMARK  177  A    between atoms: _425  and  _426
REMARK  178  A    between atoms: _430  and  _431
REMARK  179  A    between atoms: _436  and  _438
REMARK  180  A    between atoms: _438  and  _439
REMARK  181  A    between atoms: _442  and  _444
REMARK  182  A    between atoms: _444  and  _445
REMARK  183  A    between atoms: _444  and  _447
REMARK  184  A    between atoms: _447  and  _448
REMARK  185  A    between atoms: _453  and  _455
REMARK  186  A    between atoms: _455  and  _456
REMARK  187  A    between atoms: _455  and  _458
REMARK  188  A    between atoms: _458  and  _459
REMARK  189  A    between atoms: _462  and  _464
REMARK  190  A    between atoms: _464  and  _465
REMARK  191  A    between atoms: _464  and  _467
REMARK  192  A    between atoms: _467  and  _468
REMARK  193  A    between atoms: _471  and  _473
REMARK  194  A    between atoms: _473  and  _474
REMARK  195  A    between atoms: _476  and  _478
REMARK  196  A    between atoms: _478  and  _479
REMARK  197  A    between atoms: _478  and  _481
REMARK  198  A    between atoms: _481  and  _482
REMARK  199  A    between atoms: _482  and  _483
REMARK  200  A    between atoms: _483  and  _484
REMARK  201  A    between atoms: _493  and  _495
REMARK  202  A    between atoms: _495  and  _496
REMARK  203  A    between atoms: _495  and  _498
REMARK  204  A    between atoms: _498  and  _499
REMARK                            x       y       z     vdW  Elec       q    Type
REMARK                         _______ _______ _______ _____ _____    ______ ____
ROOT
ATOM      1  O   HOH     1      25.542  36.037  21.491  0.00  0.00    +0.000 OA
ENDROOT
TORSDOF 0
REMARK  Name = ../refined-set-2016/2qd7/2qd7_pocket.pdb
REMARK  204 active torsions:
REMARK  status: ('A' for Active; 'I' for Inactive)
REMARK    1  A    between atoms: _1  and  _3
REMARK    2  A    between atoms: _3  and  _4
REMARK    3  A    between atoms: _3  and  _6
REMARK    4  A    between atoms: _6  and  _7
REMARK    5  A    between atoms: _7  and  _8
REMARK    6  A    between atoms: _8  and  _9
REMARK    7  A    between atoms: _18  and  _20
REMARK    8  A    between atoms: _20  and  _21
REMARK    9  A    between atoms: _20  and  _23
REMARK   10  A    between atoms: _23  and  _24
REMARK   11  A    between atoms: _27  and  _29
REMARK   12  A    between atoms: _29  and  _30
REMARK   13  A    between atoms: _29  and  _32
REMARK   14  A    between atoms: _32  and  _33
REMARK   15  A    between atoms: _36  and  _38
REMARK   16  A    between atoms: _38  and  _39
REMARK   17  A    between atoms: _38  and  _41
REMARK   18  A    between atoms: _41  and  _42
REMARK   19  A    between atoms: _45  and  _47
REMARK   20  A    between atoms: _47  and  _48
REMARK   21  A    between atoms: _47  and  _50
REMARK   22  A    between atoms: _50  and  _51
REMARK   23  A    between atoms: _54  and  _56
REMARK   24  A    between atoms: _56  and  _57
REMARK   25  A    between atoms: _59  and  _61
REMARK   26  A    between atoms: _61  and  _62
REMARK   27  A    between atoms: _65  and  _67
REMARK   28  A    between atoms: _67  and  _68
REMARK   29  A    between atoms: _67  and  _70
REMARK   30  A    between atoms: _70  and  _71
REMARK   31  A    between atoms: _74  and  _76
REMARK   32  A    between atoms: _76  and  _77
REMARK   33  A    between atoms: _76  and  _79
REMARK   34  A    between atoms: _79  and  _80
REMARK   35  A    between atoms: _83  and  _85
REMARK   36  A    between atoms: _85  and  _86
REMARK   37  A    between atoms: _85  and  _88
REMARK   38  A    between atoms: _88  and  _89
REMARK   39  A    between atoms: _92  and  _94
REMARK   40  A    between atoms: _94  and  _95
REMARK   41  A    between atoms: _94  and  _97
REMARK   42  A    between atoms: _100  and  _102
REMARK   43  A    between atoms: _102  and  _103
REMARK   44  A    between atoms: _102  and  _105
REMARK   45  A    between atoms: _105  and  _106
REMARK   46  A    between atoms: _106  and  _107
REMARK   47  A    between atoms: _107  and  _108
REMARK   48  A    between atoms: _108  and  _109
REMARK   49  A    between atoms: _113  and  _115
REMARK   50  A    between atoms: _115  and  _116
REMARK   51  A    between atoms: _115  and  _118
REMARK   52  A    between atoms: _118  and  _119
REMARK   53  A    between atoms: _119  and  _120
REMARK   54  A    between atoms: _122  and  _124
REMARK   55  A    between atoms: _124  and  _125
REMARK   56  A    between atoms: _124  and  _127
REMARK   57  A    between atoms: _127  and  _128
REMARK   58  A    between atoms: _131  and  _133
REMARK   59  A    between atoms: _133  and  _134
REMARK   60  A    between atoms: _136  and  _138
REMARK   61  A    between atoms: _138  and  _139
REMARK   62  A    between atoms: _141  and  _143
REMARK   63  A    between atoms: _143  and  _144
REMARK   64  A    between atoms: _143  and  _146
REMARK   65  A    between atoms: _146  and  _147
REMARK   66  A    between atoms: _150  and  _152
REMARK   67  A    between atoms: _152  and  _153
REMARK   68  A    between atoms: _155  and  _157
REMARK   69  A    between atoms: _157  and  _158
REMARK   70  A    between atoms: _160  and  _162
REMARK   71  A    between atoms: _162  and  _163
REMARK   72  A    between atoms: _162  and  _165
REMARK   73  A    between atoms: _165  and  _166
REMARK   74  A    between atoms: _172  and  _174
REMARK   75  A    between atoms: _174  and  _175
REMARK   76  A    between atoms: _174  and  _177
REMARK   77  A    between atoms: _177  and  _178
REMARK   78  A    between atoms: _181  and  _183
REMARK   79  A    between atoms: _183  and  _184
REMARK   80  A    between atoms: _183  and  _186
REMARK   81  A    between atoms: _186  and  _187
REMARK   82  A    between atoms: _190  and  _192
REMARK   83  A    between atoms: _192  and  _193
REMARK   84  A    between atoms: _192  and  _195
REMARK   85  A    between atoms: _195  and  _196
REMARK   86  A    between atoms: _200  and  _201
REMARK   87  A    between atoms: _206  and  _208
REMARK   88  A    between atoms: _208  and  _209
REMARK   89  A    between atoms: _212  and  _214
REMARK   90  A    between atoms: _214  and  _215
REMARK   91  A    between atoms: _214  and  _217
REMARK   92  A    between atoms: _217  and  _218
REMARK   93  A    between atoms: _223  and  _225
REMARK   94  A    between atoms: _225  and  _226
REMARK   95  A    between atoms: _225  and  _228
REMARK   96  A    between atoms: _228  and  _229
REMARK   97  A    between atoms: _232  and  _234
REMARK   98  A    between atoms: _234  and  _235
REMARK   99  A    between atoms: _234  and  _237
REMARK  100  A    between atoms: _237  and  _238
REMARK  101  A    between atoms: _241  and  _243
REMARK  102  A    between atoms: _243  and  _244
REMARK  103  A    between atoms: _246  and  _248
REMARK  104  A    between atoms: _248  and  _249
REMARK  105  A    between atoms: _248  and  _251
REMARK  106  A    between atoms: _251  and  _252
REMARK  107  A    between atoms: _252  and  _253
REMARK  108  A    between atoms: _253  and  _254
REMARK  109  A    between atoms: _263  and  _265
REMARK  110  A    between atoms: _265  and  _266
REMARK  111  A    between atoms: _265  and  _268
REMARK  112  A    between atoms: _268  and  _269
REMARK  113  A    between atoms: _274  and  _276
REMARK  114  A    between atoms: _276  and  _277
REMARK  115  A    between atoms: _276  and  _279
REMARK  116  A    between atoms: _279  and  _280
REMARK  117  A    between atoms: _280  and  _281
REMARK  118  A    between atoms: _281  and  _282
REMARK  119  A    between atoms: _291  and  _293
REMARK  120  A    between atoms: _293  and  _294
REMARK  121  A    between atoms: _293  and  _296
REMARK  122  A    between atoms: _296  and  _297
REMARK  123  A    between atoms: _300  and  _302
REMARK  124  A    between atoms: _302  and  _303
REMARK  125  A    between atoms: _302  and  _305
REMARK  126  A    between atoms: _305  and  _306
REMARK  127  A    between atoms: _309  and  _311
REMARK  128  A    between atoms: _311  and  _312
REMARK  129  A    between atoms: _311  and  _314
REMARK  130  A    between atoms: _314  and  _315
REMARK  131  A    between atoms: _318  and  _320
REMARK  132  A    between atoms: _320  and  _321
REMARK  133  A    between atoms: _320  and  _323
REMARK  134  A    between atoms: _323  and  _324
REMARK  135  A    between atoms: _327  and  _329
REMARK  136  A    between atoms: _329  and  _330
REMARK  137  A    between atoms: _332  and  _334
REMARK  138  A    between atoms: _334  and  _335
REMARK  139  A    between atoms: _338  and  _340
REMARK  140  A    between atoms: _340  and  _341
REMARK  141  A    between atoms: _340  and  _343
REMARK  142  A    between atoms: _343  and  _344
REMARK  143  A    between atoms: _347  and  _349
REMARK  144  A    between atoms: _349  and  _350
REMARK  145  A    between atoms: _349  and  _352
REMARK  146  A    between atoms: _352  and  _353
REMARK  147  A    between atoms: _356  and  _358
REMARK  148  A    between atoms: _358  and  _359
REMARK  149  A    between atoms: _358  and  _361
REMARK  150  A    between atoms: _361  and  _362
REMARK  151  A    between atoms: _365  and  _367
REMARK  152  A    between atoms: _367  and  _368
REMARK  153  A    between atoms: _367  and  _370
REMARK  154  A    between atoms: _373  and  _375
REMARK  155  A    between atoms: _375  and  _376
REMARK  156  A    between atoms: _375  and  _378
REMARK  157  A    between atoms: _378  and  _379
REMARK  158  A    between atoms: _382  and  _384
REMARK  159  A    between atoms: _384  and  _385
REMARK  160  A    between atoms: _387  and  _389
REMARK  161  A    between atoms: _389  and  _390
REMARK  162  A    between atoms: _392  and  _394
REMARK  163  A    between atoms: _394  and  _395
REMARK  164  A    between atoms: _394  and  _397
REMARK  165  A    between atoms: _397  and  _398
REMARK  166  A    between atoms: _401  and  _403
REMARK  167  A    between atoms: _403  and  _404
REMARK  168  A    between atoms: _406  and  _408
REMARK  169  A    between atoms: _408  and  _409
REMARK  170  A    between atoms: _411  and  _413
REMARK  171  A    between atoms: _413  and  _414
REMARK  172  A    between atoms: _413  and  _416
REMARK  173  A    between atoms: _416  and  _417
REMARK  174  A    between atoms: _420  and  _422
REMARK  175  A    between atoms: _422  and  _423
REMARK  176  A    between atoms: _422  and  _425
REMARK  177  A    between atoms: _425  and  _426
REMARK  178  A    between atoms: _430  and  _431
REMARK  179  A    between atoms: _436  and  _438
REMARK  180  A    between atoms: _438  and  _439
REMARK  181  A    between atoms: _442  and  _444
REMARK  182  A    between atoms: _444  and  _445
REMARK  183  A    between atoms: _444  and  _447
REMARK  184  A    between atoms: _447  and  _448
REMARK  185  A    between atoms: _453  and  _455
REMARK  186  A    between atoms: _455  and  _456
REMARK  187  A    between atoms: _455  and  _458
REMARK  188  A    between atoms: _458  and  _459
REMARK  189  A    between atoms: _462  and  _464
REMARK  190  A    between atoms: _464  and  _465
REMARK  191  A    between atoms: _464  and  _467
REMARK  192  A    between atoms: _467  and  _468
REMARK  193  A    between atoms: _471  and  _473
REMARK  194  A    between atoms: _473  and  _474
REMARK  195  A    between atoms: _476  and  _478
REMARK  196  A    between atoms: _478  and  _479
REMARK  197  A    between atoms: _478  and  _481
REMARK  198  A    between atoms: _481  and  _482
REMARK  199  A    between atoms: _482  and  _483
REMARK  200  A    between atoms: _483  and  _484
REMARK  201  A    between atoms: _493  and  _495
REMARK  202  A    between atoms: _495  and  _496
REMARK  203  A    between atoms: _495  and  _498
REMARK  204  A    between atoms: _498  and  _499
REMARK                            x       y       z     vdW  Elec       q    Type
REMARK                         _______ _______ _______ _____ _____    ______ ____
ROOT
ATOM      1  O   HOH     1      14.859  33.238   5.574  0.00  0.00    +0.000 OA
ENDROOT
TORSDOF 0
REMARK  Name = ../refined-set-2016/2qd7/2qd7_pocket.pdb
REMARK  204 active torsions:
REMARK  status: ('A' for Active; 'I' for Inactive)
REMARK    1  A    between atoms: _1  and  _3
REMARK    2  A    between atoms: _3  and  _4
REMARK    3  A    between atoms: _3  and  _6
REMARK    4  A    between atoms: _6  and  _7
REMARK    5  A    between atoms: _7  and  _8
REMARK    6  A    between atoms: _8  and  _9
REMARK    7  A    between atoms: _18  and  _20
REMARK    8  A    between atoms: _20  and  _21
REMARK    9  A    between atoms: _20  and  _23
REMARK   10  A    between atoms: _23  and  _24
REMARK   11  A    between atoms: _27  and  _29
REMARK   12  A    between atoms: _29  and  _30
REMARK   13  A    between atoms: _29  and  _32
REMARK   14  A    between atoms: _32  and  _33
REMARK   15  A    between atoms: _36  and  _38
REMARK   16  A    between atoms: _38  and  _39
REMARK   17  A    between atoms: _38  and  _41
REMARK   18  A    between atoms: _41  and  _42
REMARK   19  A    between atoms: _45  and  _47
REMARK   20  A    between atoms: _47  and  _48
REMARK   21  A    between atoms: _47  and  _50
REMARK   22  A    between atoms: _50  and  _51
REMARK   23  A    between atoms: _54  and  _56
REMARK   24  A    between atoms: _56  and  _57
REMARK   25  A    between atoms: _59  and  _61
REMARK   26  A    between atoms: _61  and  _62
REMARK   27  A    between atoms: _65  and  _67
REMARK   28  A    between atoms: _67  and  _68
REMARK   29  A    between atoms: _67  and  _70
REMARK   30  A    between atoms: _70  and  _71
REMARK   31  A    between atoms: _74  and  _76
REMARK   32  A    between atoms: _76  and  _77
REMARK   33  A    between atoms: _76  and  _79
REMARK   34  A    between atoms: _79  and  _80
REMARK   35  A    between atoms: _83  and  _85
REMARK   36  A    between atoms: _85  and  _86
REMARK   37  A    between atoms: _85  and  _88
REMARK   38  A    between atoms: _88  and  _89
REMARK   39  A    between atoms: _92  and  _94
REMARK   40  A    between atoms: _94  and  _95
REMARK   41  A    between atoms: _94  and  _97
REMARK   42  A    between atoms: _100  and  _102
REMARK   43  A    between atoms: _102  and  _103
REMARK   44  A    between atoms: _102  and  _105
REMARK   45  A    between atoms: _105  and  _106
REMARK   46  A    between atoms: _106  and  _107
REMARK   47  A    between atoms: _107  and  _108
REMARK   48  A    between atoms: _108  and  _109
REMARK   49  A    between atoms: _113  and  _115
REMARK   50  A    between atoms: _115  and  _116
REMARK   51  A    between atoms: _115  and  _118
REMARK   52  A    between atoms: _118  and  _119
REMARK   53  A    between atoms: _119  and  _120
REMARK   54  A    between atoms: _122  and  _124
REMARK   55  A    between atoms: _124  and  _125
REMARK   56  A    between atoms: _124  and  _127
REMARK   57  A    between atoms: _127  and  _128
REMARK   58  A    between atoms: _131  and  _133
REMARK   59  A    between atoms: _133  and  _134
REMARK   60  A    between atoms: _136  and  _138
REMARK   61  A    between atoms: _138  and  _139
REMARK   62  A    between atoms: _141  and  _143
REMARK   63  A    between atoms: _143  and  _144
REMARK   64  A    between atoms: _143  and  _146
REMARK   65  A    between atoms: _146  and  _147
REMARK   66  A    between atoms: _150  and  _152
REMARK   67  A    between atoms: _152  and  _153
REMARK   68  A    between atoms: _155  and  _157
REMARK   69  A    between atoms: _157  and  _158
REMARK   70  A    between atoms: _160  and  _162
REMARK   71  A    between atoms: _162  and  _163
REMARK   72  A    between atoms: _162  and  _165
REMARK   73  A    between atoms: _165  and  _166
REMARK   74  A    between atoms: _172  and  _174
REMARK   75  A    between atoms: _174  and  _175
REMARK   76  A    between atoms: _174  and  _177
REMARK   77  A    between atoms: _177  and  _178
REMARK   78  A    between atoms: _181  and  _183
REMARK   79  A    between atoms: _183  and  _184
REMARK   80  A    between atoms: _183  and  _186
REMARK   81  A    between atoms: _186  and  _187
REMARK   82  A    between atoms: _190  and  _192
REMARK   83  A    between atoms: _192  and  _193
REMARK   84  A    between atoms: _192  and  _195
REMARK   85  A    between atoms: _195  and  _196
REMARK   86  A    between atoms: _200  and  _201
REMARK   87  A    between atoms: _206  and  _208
REMARK   88  A    between atoms: _208  and  _209
REMARK   89  A    between atoms: _212  and  _214
REMARK   90  A    between atoms: _214  and  _215
REMARK   91  A    between atoms: _214  and  _217
REMARK   92  A    between atoms: _217  and  _218
REMARK   93  A    between atoms: _223  and  _225
REMARK   94  A    between atoms: _225  and  _226
REMARK   95  A    between atoms: _225  and  _228
REMARK   96  A    between atoms: _228  and  _229
REMARK   97  A    between atoms: _232  and  _234
REMARK   98  A    between atoms: _234  and  _235
REMARK   99  A    between atoms: _234  and  _237
REMARK  100  A    between atoms: _237  and  _238
REMARK  101  A    between atoms: _241  and  _243
REMARK  102  A    between atoms: _243  and  _244
REMARK  103  A    between atoms: _246  and  _248
REMARK  104  A    between atoms: _248  and  _249
REMARK  105  A    between atoms: _248  and  _251
REMARK  106  A    between atoms: _251  and  _252
REMARK  107  A    between atoms: _252  and  _253
REMARK  108  A    between atoms: _253  and  _254
REMARK  109  A    between atoms: _263  and  _265
REMARK  110  A    between atoms: _265  and  _266
REMARK  111  A    between atoms: _265  and  _268
REMARK  112  A    between atoms: _268  and  _269
REMARK  113  A    between atoms: _274  and  _276
REMARK  114  A    between atoms: _276  and  _277
REMARK  115  A    between atoms: _276  and  _279
REMARK  116  A    between atoms: _279  and  _280
REMARK  117  A    between atoms: _280  and  _281
REMARK  118  A    between atoms: _281  and  _282
REMARK  119  A    between atoms: _291  and  _293
REMARK  120  A    between atoms: _293  and  _294
REMARK  121  A    between atoms: _293  and  _296
REMARK  122  A    between atoms: _296  and  _297
REMARK  123  A    between atoms: _300  and  _302
REMARK  124  A    between atoms: _302  and  _303
REMARK  125  A    between atoms: _302  and  _305
REMARK  126  A    between atoms: _305  and  _306
REMARK  127  A    between atoms: _309  and  _311
REMARK  128  A    between atoms: _311  and  _312
REMARK  129  A    between atoms: _311  and  _314
REMARK  130  A    between atoms: _314  and  _315
REMARK  131  A    between atoms: _318  and  _320
REMARK  132  A    between atoms: _320  and  _321
REMARK  133  A    between atoms: _320  and  _323
REMARK  134  A    between atoms: _323  and  _324
REMARK  135  A    between atoms: _327  and  _329
REMARK  136  A    between atoms: _329  and  _330
REMARK  137  A    between atoms: _332  and  _334
REMARK  138  A    between atoms: _334  and  _335
REMARK  139  A    between atoms: _338  and  _340
REMARK  140  A    between atoms: _340  and  _341
REMARK  141  A    between atoms: _340  and  _343
REMARK  142  A    between atoms: _343  and  _344
REMARK  143  A    between atoms: _347  and  _349
REMARK  144  A    between atoms: _349  and  _350
REMARK  145  A    between atoms: _349  and  _352
REMARK  146  A    between atoms: _352  and  _353
REMARK  147  A    between atoms: _356  and  _358
REMARK  148  A    between atoms: _358  and  _359
REMARK  149  A    between atoms: _358  and  _361
REMARK  150  A    between atoms: _361  and  _362
REMARK  151  A    between atoms: _365  and  _367
REMARK  152  A    between atoms: _367  and  _368
REMARK  153  A    between atoms: _367  and  _370
REMARK  154  A    between atoms: _373  and  _375
REMARK  155  A    between atoms: _375  and  _376
REMARK  156  A    between atoms: _375  and  _378
REMARK  157  A    between atoms: _378  and  _379
REMARK  158  A    between atoms: _382  and  _384
REMARK  159  A    between atoms: _384  and  _385
REMARK  160  A    between atoms: _387  and  _389
REMARK  161  A    between atoms: _389  and  _390
REMARK  162  A    between atoms: _392  and  _394
REMARK  163  A    between atoms: _394  and  _395
REMARK  164  A    between atoms: _394  and  _397
REMARK  165  A    between atoms: _397  and  _398
REMARK  166  A    between atoms: _401  and  _403
REMARK  167  A    between atoms: _403  and  _404
REMARK  168  A    between atoms: _406  and  _408
REMARK  169  A    between atoms: _408  and  _409
REMARK  170  A    between atoms: _411  and  _413
REMARK  171  A    between atoms: _413  and  _414
REMARK  172  A    between atoms: _413  and  _416
REMARK  173  A    between atoms: _416  and  _417
REMARK  174  A    between atoms: _420  and  _422
REMARK  175  A    between atoms: _422  and  _423
REMARK  176  A    between atoms: _422  and  _425
REMARK  177  A    between atoms: _425  and  _426
REMARK  178  A    between atoms: _430  and  _431
REMARK  179  A    between atoms: _436  and  _438
REMARK  180  A    between atoms: _438  and  _439
REMARK  181  A    between atoms: _442  and  _444
REMARK  182  A    between atoms: _444  and  _445
REMARK  183  A    between atoms: _444  and  _447
REMARK  184  A    between atoms: _447  and  _448
REMARK  185  A    between atoms: _453  and  _455
REMARK  186  A    between atoms: _455  and  _456
REMARK  187  A    between atoms: _455  and  _458
REMARK  188  A    between atoms: _458  and  _459
REMARK  189  A    between atoms: _462  and  _464
REMARK  190  A    between atoms: _464  and  _465
REMARK  191  A    between atoms: _464  and  _467
REMARK  192  A    between atoms: _467  and  _468
REMARK  193  A    between atoms: _471  and  _473
REMARK  194  A    between atoms: _473  and  _474
REMARK  195  A    between atoms: _476  and  _478
REMARK  196  A    between atoms: _478  and  _479
REMARK  197  A    between atoms: _478  and  _481
REMARK  198  A    between atoms: _481  and  _482
REMARK  199  A    between atoms: _482  and  _483
REMARK  200  A    between atoms: _483  and  _484
REMARK  201  A    between atoms: _493  and  _495
REMARK  202  A    between atoms: _495  and  _496
REMARK  203  A    between atoms: _495  and  _498
REMARK  204  A    between atoms: _498  and  _499
REMARK                            x       y       z     vdW  Elec       q    Type
REMARK                         _______ _______ _______ _____ _____    ______ ____
ROOT
ATOM      1  O   HOH     1      19.374  22.884  13.709  0.00  0.00    +0.000 OA
ENDROOT
TORSDOF 0
REMARK  Name = ../refined-set-2016/2qd7/2qd7_pocket.pdb
REMARK  204 active torsions:
REMARK  status: ('A' for Active; 'I' for Inactive)
REMARK    1  A    between atoms: _1  and  _3
REMARK    2  A    between atoms: _3  and  _4
REMARK    3  A    between atoms: _3  and  _6
REMARK    4  A    between atoms: _6  and  _7
REMARK    5  A    between atoms: _7  and  _8
REMARK    6  A    between atoms: _8  and  _9
REMARK    7  A    between atoms: _18  and  _20
REMARK    8  A    between atoms: _20  and  _21
REMARK    9  A    between atoms: _20  and  _23
REMARK   10  A    between atoms: _23  and  _24
REMARK   11  A    between atoms: _27  and  _29
REMARK   12  A    between atoms: _29  and  _30
REMARK   13  A    between atoms: _29  and  _32
REMARK   14  A    between atoms: _32  and  _33
REMARK   15  A    between atoms: _36  and  _38
REMARK   16  A    between atoms: _38  and  _39
REMARK   17  A    between atoms: _38  and  _41
REMARK   18  A    between atoms: _41  and  _42
REMARK   19  A    between atoms: _45  and  _47
REMARK   20  A    between atoms: _47  and  _48
REMARK   21  A    between atoms: _47  and  _50
REMARK   22  A    between atoms: _50  and  _51
REMARK   23  A    between atoms: _54  and  _56
REMARK   24  A    between atoms: _56  and  _57
REMARK   25  A    between atoms: _59  and  _61
REMARK   26  A    between atoms: _61  and  _62
REMARK   27  A    between atoms: _65  and  _67
REMARK   28  A    between atoms: _67  and  _68
REMARK   29  A    between atoms: _67  and  _70
REMARK   30  A    between atoms: _70  and  _71
REMARK   31  A    between atoms: _74  and  _76
REMARK   32  A    between atoms: _76  and  _77
REMARK   33  A    between atoms: _76  and  _79
REMARK   34  A    between atoms: _79  and  _80
REMARK   35  A    between atoms: _83  and  _85
REMARK   36  A    between atoms: _85  and  _86
REMARK   37  A    between atoms: _85  and  _88
REMARK   38  A    between atoms: _88  and  _89
REMARK   39  A    between atoms: _92  and  _94
REMARK   40  A    between atoms: _94  and  _95
REMARK   41  A    between atoms: _94  and  _97
REMARK   42  A    between atoms: _100  and  _102
REMARK   43  A    between atoms: _102  and  _103
REMARK   44  A    between atoms: _102  and  _105
REMARK   45  A    between atoms: _105  and  _106
REMARK   46  A    between atoms: _106  and  _107
REMARK   47  A    between atoms: _107  and  _108
REMARK   48  A    between atoms: _108  and  _109
REMARK   49  A    between atoms: _113  and  _115
REMARK   50  A    between atoms: _115  and  _116
REMARK   51  A    between atoms: _115  and  _118
REMARK   52  A    between atoms: _118  and  _119
REMARK   53  A    between atoms: _119  and  _120
REMARK   54  A    between atoms: _122  and  _124
REMARK   55  A    between atoms: _124  and  _125
REMARK   56  A    between atoms: _124  and  _127
REMARK   57  A    between atoms: _127  and  _128
REMARK   58  A    between atoms: _131  and  _133
REMARK   59  A    between atoms: _133  and  _134
REMARK   60  A    between atoms: _136  and  _138
REMARK   61  A    between atoms: _138  and  _139
REMARK   62  A    between atoms: _141  and  _143
REMARK   63  A    between atoms: _143  and  _144
REMARK   64  A    between atoms: _143  and  _146
REMARK   65  A    between atoms: _146  and  _147
REMARK   66  A    between atoms: _150  and  _152
REMARK   67  A    between atoms: _152  and  _153
REMARK   68  A    between atoms: _155  and  _157
REMARK   69  A    between atoms: _157  and  _158
REMARK   70  A    between atoms: _160  and  _162
REMARK   71  A    between atoms: _162  and  _163
REMARK   72  A    between atoms: _162  and  _165
REMARK   73  A    between atoms: _165  and  _166
REMARK   74  A    between atoms: _172  and  _174
REMARK   75  A    between atoms: _174  and  _175
REMARK   76  A    between atoms: _174  and  _177
REMARK   77  A    between atoms: _177  and  _178
REMARK   78  A    between atoms: _181  and  _183
REMARK   79  A    between atoms: _183  and  _184
REMARK   80  A    between atoms: _183  and  _186
REMARK   81  A    between atoms: _186  and  _187
REMARK   82  A    between atoms: _190  and  _192
REMARK   83  A    between atoms: _192  and  _193
REMARK   84  A    between atoms: _192  and  _195
REMARK   85  A    between atoms: _195  and  _196
REMARK   86  A    between atoms: _200  and  _201
REMARK   87  A    between atoms: _206  and  _208
REMARK   88  A    between atoms: _208  and  _209
REMARK   89  A    between atoms: _212  and  _214
REMARK   90  A    between atoms: _214  and  _215
REMARK   91  A    between atoms: _214  and  _217
REMARK   92  A    between atoms: _217  and  _218
REMARK   93  A    between atoms: _223  and  _225
REMARK   94  A    between atoms: _225  and  _226
REMARK   95  A    between atoms: _225  and  _228
REMARK   96  A    between atoms: _228  and  _229
REMARK   97  A    between atoms: _232  and  _234
REMARK   98  A    between atoms: _234  and  _235
REMARK   99  A    between atoms: _234  and  _237
REMARK  100  A    between atoms: _237  and  _238
REMARK  101  A    between atoms: _241  and  _243
REMARK  102  A    between atoms: _243  and  _244
REMARK  103  A    between atoms: _246  and  _248
REMARK  104  A    between atoms: _248  and  _249
REMARK  105  A    between atoms: _248  and  _251
REMARK  106  A    between atoms: _251  and  _252
REMARK  107  A    between atoms: _252  and  _253
REMARK  108  A    between atoms: _253  and  _254
REMARK  109  A    between atoms: _263  and  _265
REMARK  110  A    between atoms: _265  and  _266
REMARK  111  A    between atoms: _265  and  _268
REMARK  112  A    between atoms: _268  and  _269
REMARK  113  A    between atoms: _274  and  _276
REMARK  114  A    between atoms: _276  and  _277
REMARK  115  A    between atoms: _276  and  _279
REMARK  116  A    between atoms: _279  and  _280
REMARK  117  A    between atoms: _280  and  _281
REMARK  118  A    between atoms: _281  and  _282
REMARK  119  A    between atoms: _291  and  _293
REMARK  120  A    between atoms: _293  and  _294
REMARK  121  A    between atoms: _293  and  _296
REMARK  122  A    between atoms: _296  and  _297
REMARK  123  A    between atoms: _300  and  _302
REMARK  124  A    between atoms: _302  and  _303
REMARK  125  A    between atoms: _302  and  _305
REMARK  126  A    between atoms: _305  and  _306
REMARK  127  A    between atoms: _309  and  _311
REMARK  128  A    between atoms: _311  and  _312
REMARK  129  A    between atoms: _311  and  _314
REMARK  130  A    between atoms: _314  and  _315
REMARK  131  A    between atoms: _318  and  _320
REMARK  132  A    between atoms: _320  and  _321
REMARK  133  A    between atoms: _320  and  _323
REMARK  134  A    between atoms: _323  and  _324
REMARK  135  A    between atoms: _327  and  _329
REMARK  136  A    between atoms: _329  and  _330
REMARK  137  A    between atoms: _332  and  _334
REMARK  138  A    between atoms: _334  and  _335
REMARK  139  A    between atoms: _338  and  _340
REMARK  140  A    between atoms: _340  and  _341
REMARK  141  A    between atoms: _340  and  _343
REMARK  142  A    between atoms: _343  and  _344
REMARK  143  A    between atoms: _347  and  _349
REMARK  144  A    between atoms: _349  and  _350
REMARK  145  A    between atoms: _349  and  _352
REMARK  146  A    between atoms: _352  and  _353
REMARK  147  A    between atoms: _356  and  _358
REMARK  148  A    between atoms: _358  and  _359
REMARK  149  A    between atoms: _358  and  _361
REMARK  150  A    between atoms: _361  and  _362
REMARK  151  A    between atoms: _365  and  _367
REMARK  152  A    between atoms: _367  and  _368
REMARK  153  A    between atoms: _367  and  _370
REMARK  154  A    between atoms: _373  and  _375
REMARK  155  A    between atoms: _375  and  _376
REMARK  156  A    between atoms: _375  and  _378
REMARK  157  A    between atoms: _378  and  _379
REMARK  158  A    between atoms: _382  and  _384
REMARK  159  A    between atoms: _384  and  _385
REMARK  160  A    between atoms: _387  and  _389
REMARK  161  A    between atoms: _389  and  _390
REMARK  162  A    between atoms: _392  and  _394
REMARK  163  A    between atoms: _394  and  _395
REMARK  164  A    between atoms: _394  and  _397
REMARK  165  A    between atoms: _397  and  _398
REMARK  166  A    between atoms: _401  and  _403
REMARK  167  A    between atoms: _403  and  _404
REMARK  168  A    between atoms: _406  and  _408
REMARK  169  A    between atoms: _408  and  _409
REMARK  170  A    between atoms: _411  and  _413
REMARK  171  A    between atoms: _413  and  _414
REMARK  172  A    between atoms: _413  and  _416
REMARK  173  A    between atoms: _416  and  _417
REMARK  174  A    between atoms: _420  and  _422
REMARK  175  A    between atoms: _422  and  _423
REMARK  176  A    between atoms: _422  and  _425
REMARK  177  A    between atoms: _425  and  _426
REMARK  178  A    between atoms: _430  and  _431
REMARK  179  A    between atoms: _436  and  _438
REMARK  180  A    between atoms: _438  and  _439
REMARK  181  A    between atoms: _442  and  _444
REMARK  182  A    between atoms: _444  and  _445
REMARK  183  A    between atoms: _444  and  _447
REMARK  184  A    between atoms: _447  and  _448
REMARK  185  A    between atoms: _453  and  _455
REMARK  186  A    between atoms: _455  and  _456
REMARK  187  A    between atoms: _455  and  _458
REMARK  188  A    between atoms: _458  and  _459
REMARK  189  A    between atoms: _462  and  _464
REMARK  190  A    between atoms: _464  and  _465
REMARK  191  A    between atoms: _464  and  _467
REMARK  192  A    between atoms: _467  and  _468
REMARK  193  A    between atoms: _471  and  _473
REMARK  194  A    between atoms: _473  and  _474
REMARK  195  A    between atoms: _476  and  _478
REMARK  196  A    between atoms: _478  and  _479
REMARK  197  A    between atoms: _478  and  _481
REMARK  198  A    between atoms: _481  and  _482
REMARK  199  A    between atoms: _482  and  _483
REMARK  200  A    between atoms: _483  and  _484
REMARK  201  A    between atoms: _493  and  _495
REMARK  202  A    between atoms: _495  and  _496
REMARK  203  A    between atoms: _495  and  _498
REMARK  204  A    between atoms: _498  and  _499
REMARK                            x       y       z     vdW  Elec       q    Type
REMARK                         _______ _______ _______ _____ _____    ______ ____
ROOT
ATOM      1  O   HOH     1      29.894  21.067  11.298  0.00  0.00    +0.000 OA
ENDROOT
TORSDOF 0
REMARK  Name = ../refined-set-2016/2qd7/2qd7_pocket.pdb
REMARK  204 active torsions:
REMARK  status: ('A' for Active; 'I' for Inactive)
REMARK    1  A    between atoms: _1  and  _3
REMARK    2  A    between atoms: _3  and  _4
REMARK    3  A    between atoms: _3  and  _6
REMARK    4  A    between atoms: _6  and  _7
REMARK    5  A    between atoms: _7  and  _8
REMARK    6  A    between atoms: _8  and  _9
REMARK    7  A    between atoms: _18  and  _20
REMARK    8  A    between atoms: _20  and  _21
REMARK    9  A    between atoms: _20  and  _23
REMARK   10  A    between atoms: _23  and  _24
REMARK   11  A    between atoms: _27  and  _29
REMARK   12  A    between atoms: _29  and  _30
REMARK   13  A    between atoms: _29  and  _32
REMARK   14  A    between atoms: _32  and  _33
REMARK   15  A    between atoms: _36  and  _38
REMARK   16  A    between atoms: _38  and  _39
REMARK   17  A    between atoms: _38  and  _41
REMARK   18  A    between atoms: _41  and  _42
REMARK   19  A    between atoms: _45  and  _47
REMARK   20  A    between atoms: _47  and  _48
REMARK   21  A    between atoms: _47  and  _50
REMARK   22  A    between atoms: _50  and  _51
REMARK   23  A    between atoms: _54  and  _56
REMARK   24  A    between atoms: _56  and  _57
REMARK   25  A    between atoms: _59  and  _61
REMARK   26  A    between atoms: _61  and  _62
REMARK   27  A    between atoms: _65  and  _67
REMARK   28  A    between atoms: _67  and  _68
REMARK   29  A    between atoms: _67  and  _70
REMARK   30  A    between atoms: _70  and  _71
REMARK   31  A    between atoms: _74  and  _76
REMARK   32  A    between atoms: _76  and  _77
REMARK   33  A    between atoms: _76  and  _79
REMARK   34  A    between atoms: _79  and  _80
REMARK   35  A    between atoms: _83  and  _85
REMARK   36  A    between atoms: _85  and  _86
REMARK   37  A    between atoms: _85  and  _88
REMARK   38  A    between atoms: _88  and  _89
REMARK   39  A    between atoms: _92  and  _94
REMARK   40  A    between atoms: _94  and  _95
REMARK   41  A    between atoms: _94  and  _97
REMARK   42  A    between atoms: _100  and  _102
REMARK   43  A    between atoms: _102  and  _103
REMARK   44  A    between atoms: _102  and  _105
REMARK   45  A    between atoms: _105  and  _106
REMARK   46  A    between atoms: _106  and  _107
REMARK   47  A    between atoms: _107  and  _108
REMARK   48  A    between atoms: _108  and  _109
REMARK   49  A    between atoms: _113  and  _115
REMARK   50  A    between atoms: _115  and  _116
REMARK   51  A    between atoms: _115  and  _118
REMARK   52  A    between atoms: _118  and  _119
REMARK   53  A    between atoms: _119  and  _120
REMARK   54  A    between atoms: _122  and  _124
REMARK   55  A    between atoms: _124  and  _125
REMARK   56  A    between atoms: _124  and  _127
REMARK   57  A    between atoms: _127  and  _128
REMARK   58  A    between atoms: _131  and  _133
REMARK   59  A    between atoms: _133  and  _134
REMARK   60  A    between atoms: _136  and  _138
REMARK   61  A    between atoms: _138  and  _139
REMARK   62  A    between atoms: _141  and  _143
REMARK   63  A    between atoms: _143  and  _144
REMARK   64  A    between atoms: _143  and  _146
REMARK   65  A    between atoms: _146  and  _147
REMARK   66  A    between atoms: _150  and  _152
REMARK   67  A    between atoms: _152  and  _153
REMARK   68  A    between atoms: _155  and  _157
REMARK   69  A    between atoms: _157  and  _158
REMARK   70  A    between atoms: _160  and  _162
REMARK   71  A    between atoms: _162  and  _163
REMARK   72  A    between atoms: _162  and  _165
REMARK   73  A    between atoms: _165  and  _166
REMARK   74  A    between atoms: _172  and  _174
REMARK   75  A    between atoms: _174  and  _175
REMARK   76  A    between atoms: _174  and  _177
REMARK   77  A    between atoms: _177  and  _178
REMARK   78  A    between atoms: _181  and  _183
REMARK   79  A    between atoms: _183  and  _184
REMARK   80  A    between atoms: _183  and  _186
REMARK   81  A    between atoms: _186  and  _187
REMARK   82  A    between atoms: _190  and  _192
REMARK   83  A    between atoms: _192  and  _193
REMARK   84  A    between atoms: _192  and  _195
REMARK   85  A    between atoms: _195  and  _196
REMARK   86  A    between atoms: _200  and  _201
REMARK   87  A    between atoms: _206  and  _208
REMARK   88  A    between atoms: _208  and  _209
REMARK   89  A    between atoms: _212  and  _214
REMARK   90  A    between atoms: _214  and  _215
REMARK   91  A    between atoms: _214  and  _217
REMARK   92  A    between atoms: _217  and  _218
REMARK   93  A    between atoms: _223  and  _225
REMARK   94  A    between atoms: _225  and  _226
REMARK   95  A    between atoms: _225  and  _228
REMARK   96  A    between atoms: _228  and  _229
REMARK   97  A    between atoms: _232  and  _234
REMARK   98  A    between atoms: _234  and  _235
REMARK   99  A    between atoms: _234  and  _237
REMARK  100  A    between atoms: _237  and  _238
REMARK  101  A    between atoms: _241  and  _243
REMARK  102  A    between atoms: _243  and  _244
REMARK  103  A    between atoms: _246  and  _248
REMARK  104  A    between atoms: _248  and  _249
REMARK  105  A    between atoms: _248  and  _251
REMARK  106  A    between atoms: _251  and  _252
REMARK  107  A    between atoms: _252  and  _253
REMARK  108  A    between atoms: _253  and  _254
REMARK  109  A    between atoms: _263  and  _265
REMARK  110  A    between atoms: _265  and  _266
REMARK  111  A    between atoms: _265  and  _268
REMARK  112  A    between atoms: _268  and  _269
REMARK  113  A    between atoms: _274  and  _276
REMARK  114  A    between atoms: _276  and  _277
REMARK  115  A    between atoms: _276  and  _279
REMARK  116  A    between atoms: _279  and  _280
REMARK  117  A    between atoms: _280  and  _281
REMARK  118  A    between atoms: _281  and  _282
REMARK  119  A    between atoms: _291  and  _293
REMARK  120  A    between atoms: _293  and  _294
REMARK  121  A    between atoms: _293  and  _296
REMARK  122  A    between atoms: _296  and  _297
REMARK  123  A    between atoms: _300  and  _302
REMARK  124  A    between atoms: _302  and  _303
REMARK  125  A    between atoms: _302  and  _305
REMARK  126  A    between atoms: _305  and  _306
REMARK  127  A    between atoms: _309  and  _311
REMARK  128  A    between atoms: _311  and  _312
REMARK  129  A    between atoms: _311  and  _314
REMARK  130  A    between atoms: _314  and  _315
REMARK  131  A    between atoms: _318  and  _320
REMARK  132  A    between atoms: _320  and  _321
REMARK  133  A    between atoms: _320  and  _323
REMARK  134  A    between atoms: _323  and  _324
REMARK  135  A    between atoms: _327  and  _329
REMARK  136  A    between atoms: _329  and  _330
REMARK  137  A    between atoms: _332  and  _334
REMARK  138  A    between atoms: _334  and  _335
REMARK  139  A    between atoms: _338  and  _340
REMARK  140  A    between atoms: _340  and  _341
REMARK  141  A    between atoms: _340  and  _343
REMARK  142  A    between atoms: _343  and  _344
REMARK  143  A    between atoms: _347  and  _349
REMARK  144  A    between atoms: _349  and  _350
REMARK  145  A    between atoms: _349  and  _352
REMARK  146  A    between atoms: _352  and  _353
REMARK  147  A    between atoms: _356  and  _358
REMARK  148  A    between atoms: _358  and  _359
REMARK  149  A    between atoms: _358  and  _361
REMARK  150  A    between atoms: _361  and  _362
REMARK  151  A    between atoms: _365  and  _367
REMARK  152  A    between atoms: _367  and  _368
REMARK  153  A    between atoms: _367  and  _370
REMARK  154  A    between atoms: _373  and  _375
REMARK  155  A    between atoms: _375  and  _376
REMARK  156  A    between atoms: _375  and  _378
REMARK  157  A    between atoms: _378  and  _379
REMARK  158  A    between atoms: _382  and  _384
REMARK  159  A    between atoms: _384  and  _385
REMARK  160  A    between atoms: _387  and  _389
REMARK  161  A    between atoms: _389  and  _390
REMARK  162  A    between atoms: _392  and  _394
REMARK  163  A    between atoms: _394  and  _395
REMARK  164  A    between atoms: _394  and  _397
REMARK  165  A    between atoms: _397  and  _398
REMARK  166  A    between atoms: _401  and  _403
REMARK  167  A    between atoms: _403  and  _404
REMARK  168  A    between atoms: _406  and  _408
REMARK  169  A    between atoms: _408  and  _409
REMARK  170  A    between atoms: _411  and  _413
REMARK  171  A    between atoms: _413  and  _414
REMARK  172  A    between atoms: _413  and  _416
REMARK  173  A    between atoms: _416  and  _417
REMARK  174  A    between atoms: _420  and  _422
REMARK  175  A    between atoms: _422  and  _423
REMARK  176  A    between atoms: _422  and  _425
REMARK  177  A    between atoms: _425  and  _426
REMARK  178  A    between atoms: _430  and  _431
REMARK  179  A    between atoms: _436  and  _438
REMARK  180  A    between atoms: _438  and  _439
REMARK  181  A    between atoms: _442  and  _444
REMARK  182  A    between atoms: _444  and  _445
REMARK  183  A    between atoms: _444  and  _447
REMARK  184  A    between atoms: _447  and  _448
REMARK  185  A    between atoms: _453  and  _455
REMARK  186  A    between atoms: _455  and  _456
REMARK  187  A    between atoms: _455  and  _458
REMARK  188  A    between atoms: _458  and  _459
REMARK  189  A    between atoms: _462  and  _464
REMARK  190  A    between atoms: _464  and  _465
REMARK  191  A    between atoms: _464  and  _467
REMARK  192  A    between atoms: _467  and  _468
REMARK  193  A    between atoms: _471  and  _473
REMARK  194  A    between atoms: _473  and  _474
REMARK  195  A    between atoms: _476  and  _478
REMARK  196  A    between atoms: _478  and  _479
REMARK  197  A    between atoms: _478  and  _481
REMARK  198  A    between atoms: _481  and  _482
REMARK  199  A    between atoms: _482  and  _483
REMARK  200  A    between atoms: _483  and  _484
REMARK  201  A    between atoms: _493  and  _495
REMARK  202  A    between atoms: _495  and  _496
REMARK  203  A    between atoms: _495  and  _498
REMARK  204  A    between atoms: _498  and  _499
REMARK                            x       y       z     vdW  Elec       q    Type
REMARK                         _______ _______ _______ _____ _____    ______ ____
ROOT
ATOM      1  O   HOH     1      24.893  40.580  16.860  0.00  0.00    +0.000 OA
ENDROOT
TORSDOF 0
REMARK  Name = ../refined-set-2016/2qd7/2qd7_pocket.pdb
REMARK  204 active torsions:
REMARK  status: ('A' for Active; 'I' for Inactive)
REMARK    1  A    between atoms: _1  and  _3
REMARK    2  A    between atoms: _3  and  _4
REMARK    3  A    between atoms: _3  and  _6
REMARK    4  A    between atoms: _6  and  _7
REMARK    5  A    between atoms: _7  and  _8
REMARK    6  A    between atoms: _8  and  _9
REMARK    7  A    between atoms: _18  and  _20
REMARK    8  A    between atoms: _20  and  _21
REMARK    9  A    between atoms: _20  and  _23
REMARK   10  A    between atoms: _23  and  _24
REMARK   11  A    between atoms: _27  and  _29
REMARK   12  A    between atoms: _29  and  _30
REMARK   13  A    between atoms: _29  and  _32
REMARK   14  A    between atoms: _32  and  _33
REMARK   15  A    between atoms: _36  and  _38
REMARK   16  A    between atoms: _38  and  _39
REMARK   17  A    between atoms: _38  and  _41
REMARK   18  A    between atoms: _41  and  _42
REMARK   19  A    between atoms: _45  and  _47
REMARK   20  A    between atoms: _47  and  _48
REMARK   21  A    between atoms: _47  and  _50
REMARK   22  A    between atoms: _50  and  _51
REMARK   23  A    between atoms: _54  and  _56
REMARK   24  A    between atoms: _56  and  _57
REMARK   25  A    between atoms: _59  and  _61
REMARK   26  A    between atoms: _61  and  _62
REMARK   27  A    between atoms: _65  and  _67
REMARK   28  A    between atoms: _67  and  _68
REMARK   29  A    between atoms: _67  and  _70
REMARK   30  A    between atoms: _70  and  _71
REMARK   31  A    between atoms: _74  and  _76
REMARK   32  A    between atoms: _76  and  _77
REMARK   33  A    between atoms: _76  and  _79
REMARK   34  A    between atoms: _79  and  _80
REMARK   35  A    between atoms: _83  and  _85
REMARK   36  A    between atoms: _85  and  _86
REMARK   37  A    between atoms: _85  and  _88
REMARK   38  A    between atoms: _88  and  _89
REMARK   39  A    between atoms: _92  and  _94
REMARK   40  A    between atoms: _94  and  _95
REMARK   41  A    between atoms: _94  and  _97
REMARK   42  A    between atoms: _100  and  _102
REMARK   43  A    between atoms: _102  and  _103
REMARK   44  A    between atoms: _102  and  _105
REMARK   45  A    between atoms: _105  and  _106
REMARK   46  A    between atoms: _106  and  _107
REMARK   47  A    between atoms: _107  and  _108
REMARK   48  A    between atoms: _108  and  _109
REMARK   49  A    between atoms: _113  and  _115
REMARK   50  A    between atoms: _115  and  _116
REMARK   51  A    between atoms: _115  and  _118
REMARK   52  A    between atoms: _118  and  _119
REMARK   53  A    between atoms: _119  and  _120
REMARK   54  A    between atoms: _122  and  _124
REMARK   55  A    between atoms: _124  and  _125
REMARK   56  A    between atoms: _124  and  _127
REMARK   57  A    between atoms: _127  and  _128
REMARK   58  A    between atoms: _131  and  _133
REMARK   59  A    between atoms: _133  and  _134
REMARK   60  A    between atoms: _136  and  _138
REMARK   61  A    between atoms: _138  and  _139
REMARK   62  A    between atoms: _141  and  _143
REMARK   63  A    between atoms: _143  and  _144
REMARK   64  A    between atoms: _143  and  _146
REMARK   65  A    between atoms: _146  and  _147
REMARK   66  A    between atoms: _150  and  _152
REMARK   67  A    between atoms: _152  and  _153
REMARK   68  A    between atoms: _155  and  _157
REMARK   69  A    between atoms: _157  and  _158
REMARK   70  A    between atoms: _160  and  _162
REMARK   71  A    between atoms: _162  and  _163
REMARK   72  A    between atoms: _162  and  _165
REMARK   73  A    between atoms: _165  and  _166
REMARK   74  A    between atoms: _172  and  _174
REMARK   75  A    between atoms: _174  and  _175
REMARK   76  A    between atoms: _174  and  _177
REMARK   77  A    between atoms: _177  and  _178
REMARK   78  A    between atoms: _181  and  _183
REMARK   79  A    between atoms: _183  and  _184
REMARK   80  A    between atoms: _183  and  _186
REMARK   81  A    between atoms: _186  and  _187
REMARK   82  A    between atoms: _190  and  _192
REMARK   83  A    between atoms: _192  and  _193
REMARK   84  A    between atoms: _192  and  _195
REMARK   85  A    between atoms: _195  and  _196
REMARK   86  A    between atoms: _200  and  _201
REMARK   87  A    between atoms: _206  and  _208
REMARK   88  A    between atoms: _208  and  _209
REMARK   89  A    between atoms: _212  and  _214
REMARK   90  A    between atoms: _214  and  _215
REMARK   91  A    between atoms: _214  and  _217
REMARK   92  A    between atoms: _217  and  _218
REMARK   93  A    between atoms: _223  and  _225
REMARK   94  A    between atoms: _225  and  _226
REMARK   95  A    between atoms: _225  and  _228
REMARK   96  A    between atoms: _228  and  _229
REMARK   97  A    between atoms: _232  and  _234
REMARK   98  A    between atoms: _234  and  _235
REMARK   99  A    between atoms: _234  and  _237
REMARK  100  A    between atoms: _237  and  _238
REMARK  101  A    between atoms: _241  and  _243
REMARK  102  A    between atoms: _243  and  _244
REMARK  103  A    between atoms: _246  and  _248
REMARK  104  A    between atoms: _248  and  _249
REMARK  105  A    between atoms: _248  and  _251
REMARK  106  A    between atoms: _251  and  _252
REMARK  107  A    between atoms: _252  and  _253
REMARK  108  A    between atoms: _253  and  _254
REMARK  109  A    between atoms: _263  and  _265
REMARK  110  A    between atoms: _265  and  _266
REMARK  111  A    between atoms: _265  and  _268
REMARK  112  A    between atoms: _268  and  _269
REMARK  113  A    between atoms: _274  and  _276
REMARK  114  A    between atoms: _276  and  _277
REMARK  115  A    between atoms: _276  and  _279
REMARK  116  A    between atoms: _279  and  _280
REMARK  117  A    between atoms: _280  and  _281
REMARK  118  A    between atoms: _281  and  _282
REMARK  119  A    between atoms: _291  and  _293
REMARK  120  A    between atoms: _293  and  _294
REMARK  121  A    between atoms: _293  and  _296
REMARK  122  A    between atoms: _296  and  _297
REMARK  123  A    between atoms: _300  and  _302
REMARK  124  A    between atoms: _302  and  _303
REMARK  125  A    between atoms: _302  and  _305
REMARK  126  A    between atoms: _305  and  _306
REMARK  127  A    between atoms: _309  and  _311
REMARK  128  A    between atoms: _311  and  _312
REMARK  129  A    between atoms: _311  and  _314
REMARK  130  A    between atoms: _314  and  _315
REMARK  131  A    between atoms: _318  and  _320
REMARK  132  A    between atoms: _320  and  _321
REMARK  133  A    between atoms: _320  and  _323
REMARK  134  A    between atoms: _323  and  _324
REMARK  135  A    between atoms: _327  and  _329
REMARK  136  A    between atoms: _329  and  _330
REMARK  137  A    between atoms: _332  and  _334
REMARK  138  A    between atoms: _334  and  _335
REMARK  139  A    between atoms: _338  and  _340
REMARK  140  A    between atoms: _340  and  _341
REMARK  141  A    between atoms: _340  and  _343
REMARK  142  A    between atoms: _343  and  _344
REMARK  143  A    between atoms: _347  and  _349
REMARK  144  A    between atoms: _349  and  _350
REMARK  145  A    between atoms: _349  and  _352
REMARK  146  A    between atoms: _352  and  _353
REMARK  147  A    between atoms: _356  and  _358
REMARK  148  A    between atoms: _358  and  _359
REMARK  149  A    between atoms: _358  and  _361
REMARK  150  A    between atoms: _361  and  _362
REMARK  151  A    between atoms: _365  and  _367
REMARK  152  A    between atoms: _367  and  _368
REMARK  153  A    between atoms: _367  and  _370
REMARK  154  A    between atoms: _373  and  _375
REMARK  155  A    between atoms: _375  and  _376
REMARK  156  A    between atoms: _375  and  _378
REMARK  157  A    between atoms: _378  and  _379
REMARK  158  A    between atoms: _382  and  _384
REMARK  159  A    between atoms: _384  and  _385
REMARK  160  A    between atoms: _387  and  _389
REMARK  161  A    between atoms: _389  and  _390
REMARK  162  A    between atoms: _392  and  _394
REMARK  163  A    between atoms: _394  and  _395
REMARK  164  A    between atoms: _394  and  _397
REMARK  165  A    between atoms: _397  and  _398
REMARK  166  A    between atoms: _401  and  _403
REMARK  167  A    between atoms: _403  and  _404
REMARK  168  A    between atoms: _406  and  _408
REMARK  169  A    between atoms: _408  and  _409
REMARK  170  A    between atoms: _411  and  _413
REMARK  171  A    between atoms: _413  and  _414
REMARK  172  A    between atoms: _413  and  _416
REMARK  173  A    between atoms: _416  and  _417
REMARK  174  A    between atoms: _420  and  _422
REMARK  175  A    between atoms: _422  and  _423
REMARK  176  A    between atoms: _422  and  _425
REMARK  177  A    between atoms: _425  and  _426
REMARK  178  A    between atoms: _430  and  _431
REMARK  179  A    between atoms: _436  and  _438
REMARK  180  A    between atoms: _438  and  _439
REMARK  181  A    between atoms: _442  and  _444
REMARK  182  A    between atoms: _444  and  _445
REMARK  183  A    between atoms: _444  and  _447
REMARK  184  A    between atoms: _447  and  _448
REMARK  185  A    between atoms: _453  and  _455
REMARK  186  A    between atoms: _455  and  _456
REMARK  187  A    between atoms: _455  and  _458
REMARK  188  A    between atoms: _458  and  _459
REMARK  189  A    between atoms: _462  and  _464
REMARK  190  A    between atoms: _464  and  _465
REMARK  191  A    between atoms: _464  and  _467
REMARK  192  A    between atoms: _467  and  _468
REMARK  193  A    between atoms: _471  and  _473
REMARK  194  A    between atoms: _473  and  _474
REMARK  195  A    between atoms: _476  and  _478
REMARK  196  A    between atoms: _478  and  _479
REMARK  197  A    between atoms: _478  and  _481
REMARK  198  A    between atoms: _481  and  _482
REMARK  199  A    between atoms: _482  and  _483
REMARK  200  A    between atoms: _483  and  _484
REMARK  201  A    between atoms: _493  and  _495
REMARK  202  A    between atoms: _495  and  _496
REMARK  203  A    between atoms: _495  and  _498
REMARK  204  A    between atoms: _498  and  _499
REMARK                            x       y       z     vdW  Elec       q    Type
REMARK                         _______ _______ _______ _____ _____    ______ ____
ROOT
ATOM      1  O   HOH     1      22.340  25.543   7.484  0.00  0.00    +0.000 OA
ENDROOT
TORSDOF 0
