REMARK  Name = ../refined-set-2016/1kzk/1kzk_pocket.pdb
REMARK  232 active torsions:
REMARK  status: ('A' for Active; 'I' for Inactive)
REMARK    1  A    between atoms: _1  and  _3
REMARK    2  A    between atoms: _3  and  _4
REMARK    3  A    between atoms: _3  and  _6
REMARK    4  A    between atoms: _6  and  _7
REMARK    5  A    between atoms: _7  and  _8
REMARK    6  A    between atoms: _8  and  _9
REMARK    7  A    between atoms: _18  and  _20
REMARK    8  A    between atoms: _20  and  _21
REMARK    9  A    between atoms: _20  and  _23
REMARK   10  A    between atoms: _23  and  _24
REMARK   11  A    between atoms: _27  and  _29
REMARK   12  A    between atoms: _29  and  _30
REMARK   13  A    between atoms: _29  and  _32
REMARK   14  A    between atoms: _32  and  _33
REMARK   15  A    between atoms: _36  and  _38
REMARK   16  A    between atoms: _38  and  _39
REMARK   17  A    between atoms: _38  and  _41
REMARK   18  A    between atoms: _41  and  _42
REMARK   19  A    between atoms: _45  and  _47
REMARK   20  A    between atoms: _47  and  _48
REMARK   21  A    between atoms: _47  and  _50
REMARK   22  A    between atoms: _50  and  _51
REMARK   23  A    between atoms: _54  and  _56
REMARK   24  A    between atoms: _56  and  _57
REMARK   25  A    between atoms: _59  and  _61
REMARK   26  A    between atoms: _61  and  _62
REMARK   27  A    between atoms: _65  and  _67
REMARK   28  A    between atoms: _67  and  _68
REMARK   29  A    between atoms: _67  and  _70
REMARK   30  A    between atoms: _70  and  _71
REMARK   31  A    between atoms: _74  and  _76
REMARK   32  A    between atoms: _76  and  _77
REMARK   33  A    between atoms: _76  and  _79
REMARK   34  A    between atoms: _79  and  _80
REMARK   35  A    between atoms: _83  and  _85
REMARK   36  A    between atoms: _85  and  _86
REMARK   37  A    between atoms: _85  and  _88
REMARK   38  A    between atoms: _88  and  _89
REMARK   39  A    between atoms: _92  and  _94
REMARK   40  A    between atoms: _94  and  _95
REMARK   41  A    between atoms: _94  and  _97
REMARK   42  A    between atoms: _100  and  _102
REMARK   43  A    between atoms: _102  and  _103
REMARK   44  A    between atoms: _102  and  _105
REMARK   45  A    between atoms: _106  and  _107
REMARK   46  A    between atoms: _107  and  _108
REMARK   47  A    between atoms: _108  and  _109
REMARK   48  A    between atoms: _113  and  _115
REMARK   49  A    between atoms: _115  and  _116
REMARK   50  A    between atoms: _115  and  _118
REMARK   51  A    between atoms: _118  and  _119
REMARK   52  A    between atoms: _119  and  _120
REMARK   53  A    between atoms: _122  and  _124
REMARK   54  A    between atoms: _124  and  _125
REMARK   55  A    between atoms: _124  and  _127
REMARK   56  A    between atoms: _127  and  _128
REMARK   57  A    between atoms: _131  and  _133
REMARK   58  A    between atoms: _133  and  _134
REMARK   59  A    between atoms: _136  and  _138
REMARK   60  A    between atoms: _138  and  _139
REMARK   61  A    between atoms: _141  and  _143
REMARK   62  A    between atoms: _143  and  _144
REMARK   63  A    between atoms: _143  and  _146
REMARK   64  A    between atoms: _146  and  _147
REMARK   65  A    between atoms: _150  and  _152
REMARK   66  A    between atoms: _152  and  _153
REMARK   67  A    between atoms: _155  and  _157
REMARK   68  A    between atoms: _157  and  _158
REMARK   69  A    between atoms: _160  and  _162
REMARK   70  A    between atoms: _162  and  _163
REMARK   71  A    between atoms: _162  and  _165
REMARK   72  A    between atoms: _165  and  _166
REMARK   73  A    between atoms: _169  and  _171
REMARK   74  A    between atoms: _171  and  _172
REMARK   75  A    between atoms: _171  and  _174
REMARK   76  A    between atoms: _177  and  _179
REMARK   77  A    between atoms: _179  and  _180
REMARK   78  A    between atoms: _179  and  _182
REMARK   79  A    between atoms: _182  and  _183
REMARK   80  A    between atoms: _186  and  _188
REMARK   81  A    between atoms: _188  and  _189
REMARK   82  A    between atoms: _188  and  _191
REMARK   83  A    between atoms: _191  and  _192
REMARK   84  A    between atoms: _196  and  _197
REMARK   85  A    between atoms: _202  and  _204
REMARK   86  A    between atoms: _204  and  _205
REMARK   87  A    between atoms: _204  and  _207
REMARK   88  A    between atoms: _210  and  _212
REMARK   89  A    between atoms: _212  and  _213
REMARK   90  A    between atoms: _212  and  _215
REMARK   91  A    between atoms: _215  and  _216
REMARK   92  A    between atoms: _221  and  _223
REMARK   93  A    between atoms: _223  and  _224
REMARK   94  A    between atoms: _223  and  _226
REMARK   95  A    between atoms: _226  and  _227
REMARK   96  A    between atoms: _230  and  _232
REMARK   97  A    between atoms: _232  and  _233
REMARK   98  A    between atoms: _232  and  _235
REMARK   99  A    between atoms: _235  and  _236
REMARK  100  A    between atoms: _239  and  _241
REMARK  101  A    between atoms: _241  and  _242
REMARK  102  A    between atoms: _244  and  _246
REMARK  103  A    between atoms: _246  and  _247
REMARK  104  A    between atoms: _246  and  _249
REMARK  105  A    between atoms: _249  and  _250
REMARK  106  A    between atoms: _250  and  _251
REMARK  107  A    between atoms: _251  and  _252
REMARK  108  A    between atoms: _261  and  _263
REMARK  109  A    between atoms: _263  and  _264
REMARK  110  A    between atoms: _263  and  _266
REMARK  111  A    between atoms: _266  and  _267
REMARK  112  A    between atoms: _272  and  _274
REMARK  113  A    between atoms: _274  and  _275
REMARK  114  A    between atoms: _274  and  _277
REMARK  115  A    between atoms: _277  and  _278
REMARK  116  A    between atoms: _278  and  _279
REMARK  117  A    between atoms: _279  and  _280
REMARK  118  A    between atoms: _289  and  _291
REMARK  119  A    between atoms: _291  and  _292
REMARK  120  A    between atoms: _291  and  _294
REMARK  121  A    between atoms: _294  and  _295
REMARK  122  A    between atoms: _298  and  _300
REMARK  123  A    between atoms: _300  and  _301
REMARK  124  A    between atoms: _300  and  _303
REMARK  125  A    between atoms: _303  and  _304
REMARK  126  A    between atoms: _307  and  _309
REMARK  127  A    between atoms: _309  and  _310
REMARK  128  A    between atoms: _309  and  _312
REMARK  129  A    between atoms: _312  and  _313
REMARK  130  A    between atoms: _316  and  _318
REMARK  131  A    between atoms: _318  and  _319
REMARK  132  A    between atoms: _318  and  _321
REMARK  133  A    between atoms: _321  and  _322
REMARK  134  A    between atoms: _325  and  _327
REMARK  135  A    between atoms: _327  and  _328
REMARK  136  A    between atoms: _330  and  _332
REMARK  137  A    between atoms: _332  and  _333
REMARK  138  A    between atoms: _336  and  _338
REMARK  139  A    between atoms: _338  and  _339
REMARK  140  A    between atoms: _338  and  _341
REMARK  141  A    between atoms: _341  and  _342
REMARK  142  A    between atoms: _345  and  _347
REMARK  143  A    between atoms: _347  and  _348
REMARK  144  A    between atoms: _347  and  _350
REMARK  145  A    between atoms: _350  and  _351
REMARK  146  A    between atoms: _354  and  _356
REMARK  147  A    between atoms: _356  and  _357
REMARK  148  A    between atoms: _356  and  _359
REMARK  149  A    between atoms: _359  and  _360
REMARK  150  A    between atoms: _363  and  _365
REMARK  151  A    between atoms: _365  and  _366
REMARK  152  A    between atoms: _365  and  _368
REMARK  153  A    between atoms: _371  and  _373
REMARK  154  A    between atoms: _373  and  _374
REMARK  155  A    between atoms: _373  and  _376
REMARK  156  A    between atoms: _376  and  _377
REMARK  157  A    between atoms: _380  and  _382
REMARK  158  A    between atoms: _382  and  _383
REMARK  159  A    between atoms: _382  and  _385
REMARK  160  A    between atoms: _385  and  _386
REMARK  161  A    between atoms: _386  and  _387
REMARK  162  A    between atoms: _387  and  _388
REMARK  163  A    between atoms: _388  and  _389
REMARK  164  A    between atoms: _393  and  _395
REMARK  165  A    between atoms: _395  and  _396
REMARK  166  A    between atoms: _395  and  _398
REMARK  167  A    between atoms: _398  and  _399
REMARK  168  A    between atoms: _399  and  _400
REMARK  169  A    between atoms: _402  and  _404
REMARK  170  A    between atoms: _404  and  _405
REMARK  171  A    between atoms: _404  and  _407
REMARK  172  A    between atoms: _407  and  _408
REMARK  173  A    between atoms: _411  and  _413
REMARK  174  A    between atoms: _413  and  _414
REMARK  175  A    between atoms: _416  and  _418
REMARK  176  A    between atoms: _418  and  _419
REMARK  177  A    between atoms: _421  and  _423
REMARK  178  A    between atoms: _423  and  _424
REMARK  179  A    between atoms: _423  and  _426
REMARK  180  A    between atoms: _426  and  _427
REMARK  181  A    between atoms: _430  and  _432
REMARK  182  A    between atoms: _432  and  _433
REMARK  183  A    between atoms: _435  and  _437
REMARK  184  A    between atoms: _437  and  _438
REMARK  185  A    between atoms: _440  and  _442
REMARK  186  A    between atoms: _442  and  _443
REMARK  187  A    between atoms: _442  and  _445
REMARK  188  A    between atoms: _445  and  _446
REMARK  189  A    between atoms: _452  and  _454
REMARK  190  A    between atoms: _454  and  _455
REMARK  191  A    between atoms: _454  and  _457
REMARK  192  A    between atoms: _457  and  _458
REMARK  193  A    between atoms: _461  and  _463
REMARK  194  A    between atoms: _463  and  _464
REMARK  195  A    between atoms: _463  and  _466
REMARK  196  A    between atoms: _469  and  _471
REMARK  197  A    between atoms: _471  and  _472
REMARK  198  A    between atoms: _471  and  _474
REMARK  199  A    between atoms: _474  and  _475
REMARK  200  A    between atoms: _479  and  _480
REMARK  201  A    between atoms: _485  and  _487
REMARK  202  A    between atoms: _487  and  _488
REMARK  203  A    between atoms: _487  and  _490
REMARK  204  A    between atoms: _490  and  _491
REMARK  205  A    between atoms: _495  and  _496
REMARK  206  A    between atoms: _501  and  _503
REMARK  207  A    between atoms: _503  and  _504
REMARK  208  A    between atoms: _503  and  _506
REMARK  209  A    between atoms: _509  and  _511
REMARK  210  A    between atoms: _511  and  _512
REMARK  211  A    between atoms: _511  and  _514
REMARK  212  A    between atoms: _514  and  _515
REMARK  213  A    between atoms: _520  and  _522
REMARK  214  A    between atoms: _522  and  _523
REMARK  215  A    between atoms: _522  and  _525
REMARK  216  A    between atoms: _525  and  _526
REMARK  217  A    between atoms: _529  and  _531
REMARK  218  A    between atoms: _531  and  _532
REMARK  219  A    between atoms: _531  and  _534
REMARK  220  A    between atoms: _534  and  _535
REMARK  221  A    between atoms: _538  and  _540
REMARK  222  A    between atoms: _540  and  _541
REMARK  223  A    between atoms: _543  and  _545
REMARK  224  A    between atoms: _545  and  _546
REMARK  225  A    between atoms: _545  and  _548
REMARK  226  A    between atoms: _548  and  _549
REMARK  227  A    between atoms: _549  and  _550
REMARK  228  A    between atoms: _550  and  _551
REMARK  229  A    between atoms: _560  and  _562
REMARK  230  A    between atoms: _562  and  _563
REMARK  231  A    between atoms: _562  and  _565
REMARK  232  A    between atoms: _565  and  _566
REMARK                            x       y       z     vdW  Elec       q    Type
REMARK                         _______ _______ _______ _____ _____    ______ ____
ROOT
ATOM      1  NE  ARG A   1      21.911  -7.908   8.806  0.00  0.00    -0.265 N 
ATOM      2  CZ  ARG A   1      22.119  -8.287  10.054  0.00  0.00    +0.342 C 
ATOM      3  NH2 ARG A   1      21.158  -8.717  10.877  0.00  0.00    -0.292 N 
ATOM      4 HH21 ARG A   1      21.394  -9.000  11.849  0.00  0.00    +0.255 HD
ATOM      5 HH22 ARG A   1      20.174  -8.769  10.545  0.00  0.00    +0.255 HD
ATOM      6  NH1 ARG A   1      23.364  -8.237  10.509  0.00  0.00    -0.292 N 
ATOM      7 HH11 ARG A   1      23.573  -8.526  11.486  0.00  0.00    +0.255 HD
ATOM      8 HH12 ARG A   1      24.131  -7.908   9.889  0.00  0.00    +0.255 HD
ATOM      9  HE  ARG A   1      20.920  -7.965   8.494  0.00  0.00    +0.259 HD
ENDROOT
BRANCH   1  10
ATOM     10  CD  ARG A   1      22.841  -7.423   7.793  0.00  0.00    +0.174 C 
BRANCH  10  11
ATOM     11  CG  ARG A   1      22.229  -6.895   6.503  0.00  0.00    +0.045 C 
BRANCH  11  12
ATOM     12  CB  ARG A   1      23.204  -6.097   5.623  0.00  0.00    +0.029 C 
BRANCH  12  13
ATOM     13  CA  ARG A   1      22.597  -5.158   4.577  0.00  0.00    +0.133 C 
BRANCH  13  14
ATOM     14  N   ARG A   1      21.888  -5.927   3.553  0.00  0.00    -0.239 NA
ATOM     15  H   ARG A   1      21.828  -6.962   3.634  0.00  0.00    +0.142 HD
ENDBRANCH  13  14
BRANCH  13  16
ATOM     16  C   ARG A   1      23.679  -4.265   3.946  0.00  0.00    +0.224 C 
ATOM     17  O   ARG A   1      24.440  -4.746   3.084  0.00  0.00    -0.287 OA
ENDBRANCH  13  16
ENDBRANCH  12  13
ENDBRANCH  11  12
ENDBRANCH  10  11
ENDBRANCH   1  10
TORSDOF 6
REMARK  Name = ../refined-set-2016/1kzk/1kzk_pocket.pdb
REMARK  232 active torsions:
REMARK  status: ('A' for Active; 'I' for Inactive)
REMARK    1  A    between atoms: _1  and  _3
REMARK    2  A    between atoms: _3  and  _4
REMARK    3  A    between atoms: _3  and  _6
REMARK    4  A    between atoms: _6  and  _7
REMARK    5  A    between atoms: _7  and  _8
REMARK    6  A    between atoms: _8  and  _9
REMARK    7  A    between atoms: _18  and  _20
REMARK    8  A    between atoms: _20  and  _21
REMARK    9  A    between atoms: _20  and  _23
REMARK   10  A    between atoms: _23  and  _24
REMARK   11  A    between atoms: _27  and  _29
REMARK   12  A    between atoms: _29  and  _30
REMARK   13  A    between atoms: _29  and  _32
REMARK   14  A    between atoms: _32  and  _33
REMARK   15  A    between atoms: _36  and  _38
REMARK   16  A    between atoms: _38  and  _39
REMARK   17  A    between atoms: _38  and  _41
REMARK   18  A    between atoms: _41  and  _42
REMARK   19  A    between atoms: _45  and  _47
REMARK   20  A    between atoms: _47  and  _48
REMARK   21  A    between atoms: _47  and  _50
REMARK   22  A    between atoms: _50  and  _51
REMARK   23  A    between atoms: _54  and  _56
REMARK   24  A    between atoms: _56  and  _57
REMARK   25  A    between atoms: _59  and  _61
REMARK   26  A    between atoms: _61  and  _62
REMARK   27  A    between atoms: _65  and  _67
REMARK   28  A    between atoms: _67  and  _68
REMARK   29  A    between atoms: _67  and  _70
REMARK   30  A    between atoms: _70  and  _71
REMARK   31  A    between atoms: _74  and  _76
REMARK   32  A    between atoms: _76  and  _77
REMARK   33  A    between atoms: _76  and  _79
REMARK   34  A    between atoms: _79  and  _80
REMARK   35  A    between atoms: _83  and  _85
REMARK   36  A    between atoms: _85  and  _86
REMARK   37  A    between atoms: _85  and  _88
REMARK   38  A    between atoms: _88  and  _89
REMARK   39  A    between atoms: _92  and  _94
REMARK   40  A    between atoms: _94  and  _95
REMARK   41  A    between atoms: _94  and  _97
REMARK   42  A    between atoms: _100  and  _102
REMARK   43  A    between atoms: _102  and  _103
REMARK   44  A    between atoms: _102  and  _105
REMARK   45  A    between atoms: _106  and  _107
REMARK   46  A    between atoms: _107  and  _108
REMARK   47  A    between atoms: _108  and  _109
REMARK   48  A    between atoms: _113  and  _115
REMARK   49  A    between atoms: _115  and  _116
REMARK   50  A    between atoms: _115  and  _118
REMARK   51  A    between atoms: _118  and  _119
REMARK   52  A    between atoms: _119  and  _120
REMARK   53  A    between atoms: _122  and  _124
REMARK   54  A    between atoms: _124  and  _125
REMARK   55  A    between atoms: _124  and  _127
REMARK   56  A    between atoms: _127  and  _128
REMARK   57  A    between atoms: _131  and  _133
REMARK   58  A    between atoms: _133  and  _134
REMARK   59  A    between atoms: _136  and  _138
REMARK   60  A    between atoms: _138  and  _139
REMARK   61  A    between atoms: _141  and  _143
REMARK   62  A    between atoms: _143  and  _144
REMARK   63  A    between atoms: _143  and  _146
REMARK   64  A    between atoms: _146  and  _147
REMARK   65  A    between atoms: _150  and  _152
REMARK   66  A    between atoms: _152  and  _153
REMARK   67  A    between atoms: _155  and  _157
REMARK   68  A    between atoms: _157  and  _158
REMARK   69  A    between atoms: _160  and  _162
REMARK   70  A    between atoms: _162  and  _163
REMARK   71  A    between atoms: _162  and  _165
REMARK   72  A    between atoms: _165  and  _166
REMARK   73  A    between atoms: _169  and  _171
REMARK   74  A    between atoms: _171  and  _172
REMARK   75  A    between atoms: _171  and  _174
REMARK   76  A    between atoms: _177  and  _179
REMARK   77  A    between atoms: _179  and  _180
REMARK   78  A    between atoms: _179  and  _182
REMARK   79  A    between atoms: _182  and  _183
REMARK   80  A    between atoms: _186  and  _188
REMARK   81  A    between atoms: _188  and  _189
REMARK   82  A    between atoms: _188  and  _191
REMARK   83  A    between atoms: _191  and  _192
REMARK   84  A    between atoms: _196  and  _197
REMARK   85  A    between atoms: _202  and  _204
REMARK   86  A    between atoms: _204  and  _205
REMARK   87  A    between atoms: _204  and  _207
REMARK   88  A    between atoms: _210  and  _212
REMARK   89  A    between atoms: _212  and  _213
REMARK   90  A    between atoms: _212  and  _215
REMARK   91  A    between atoms: _215  and  _216
REMARK   92  A    between atoms: _221  and  _223
REMARK   93  A    between atoms: _223  and  _224
REMARK   94  A    between atoms: _223  and  _226
REMARK   95  A    between atoms: _226  and  _227
REMARK   96  A    between atoms: _230  and  _232
REMARK   97  A    between atoms: _232  and  _233
REMARK   98  A    between atoms: _232  and  _235
REMARK   99  A    between atoms: _235  and  _236
REMARK  100  A    between atoms: _239  and  _241
REMARK  101  A    between atoms: _241  and  _242
REMARK  102  A    between atoms: _244  and  _246
REMARK  103  A    between atoms: _246  and  _247
REMARK  104  A    between atoms: _246  and  _249
REMARK  105  A    between atoms: _249  and  _250
REMARK  106  A    between atoms: _250  and  _251
REMARK  107  A    between atoms: _251  and  _252
REMARK  108  A    between atoms: _261  and  _263
REMARK  109  A    between atoms: _263  and  _264
REMARK  110  A    between atoms: _263  and  _266
REMARK  111  A    between atoms: _266  and  _267
REMARK  112  A    between atoms: _272  and  _274
REMARK  113  A    between atoms: _274  and  _275
REMARK  114  A    between atoms: _274  and  _277
REMARK  115  A    between atoms: _277  and  _278
REMARK  116  A    between atoms: _278  and  _279
REMARK  117  A    between atoms: _279  and  _280
REMARK  118  A    between atoms: _289  and  _291
REMARK  119  A    between atoms: _291  and  _292
REMARK  120  A    between atoms: _291  and  _294
REMARK  121  A    between atoms: _294  and  _295
REMARK  122  A    between atoms: _298  and  _300
REMARK  123  A    between atoms: _300  and  _301
REMARK  124  A    between atoms: _300  and  _303
REMARK  125  A    between atoms: _303  and  _304
REMARK  126  A    between atoms: _307  and  _309
REMARK  127  A    between atoms: _309  and  _310
REMARK  128  A    between atoms: _309  and  _312
REMARK  129  A    between atoms: _312  and  _313
REMARK  130  A    between atoms: _316  and  _318
REMARK  131  A    between atoms: _318  and  _319
REMARK  132  A    between atoms: _318  and  _321
REMARK  133  A    between atoms: _321  and  _322
REMARK  134  A    between atoms: _325  and  _327
REMARK  135  A    between atoms: _327  and  _328
REMARK  136  A    between atoms: _330  and  _332
REMARK  137  A    between atoms: _332  and  _333
REMARK  138  A    between atoms: _336  and  _338
REMARK  139  A    between atoms: _338  and  _339
REMARK  140  A    between atoms: _338  and  _341
REMARK  141  A    between atoms: _341  and  _342
REMARK  142  A    between atoms: _345  and  _347
REMARK  143  A    between atoms: _347  and  _348
REMARK  144  A    between atoms: _347  and  _350
REMARK  145  A    between atoms: _350  and  _351
REMARK  146  A    between atoms: _354  and  _356
REMARK  147  A    between atoms: _356  and  _357
REMARK  148  A    between atoms: _356  and  _359
REMARK  149  A    between atoms: _359  and  _360
REMARK  150  A    between atoms: _363  and  _365
REMARK  151  A    between atoms: _365  and  _366
REMARK  152  A    between atoms: _365  and  _368
REMARK  153  A    between atoms: _371  and  _373
REMARK  154  A    between atoms: _373  and  _374
REMARK  155  A    between atoms: _373  and  _376
REMARK  156  A    between atoms: _376  and  _377
REMARK  157  A    between atoms: _380  and  _382
REMARK  158  A    between atoms: _382  and  _383
REMARK  159  A    between atoms: _382  and  _385
REMARK  160  A    between atoms: _385  and  _386
REMARK  161  A    between atoms: _386  and  _387
REMARK  162  A    between atoms: _387  and  _388
REMARK  163  A    between atoms: _388  and  _389
REMARK  164  A    between atoms: _393  and  _395
REMARK  165  A    between atoms: _395  and  _396
REMARK  166  A    between atoms: _395  and  _398
REMARK  167  A    between atoms: _398  and  _399
REMARK  168  A    between atoms: _399  and  _400
REMARK  169  A    between atoms: _402  and  _404
REMARK  170  A    between atoms: _404  and  _405
REMARK  171  A    between atoms: _404  and  _407
REMARK  172  A    between atoms: _407  and  _408
REMARK  173  A    between atoms: _411  and  _413
REMARK  174  A    between atoms: _413  and  _414
REMARK  175  A    between atoms: _416  and  _418
REMARK  176  A    between atoms: _418  and  _419
REMARK  177  A    between atoms: _421  and  _423
REMARK  178  A    between atoms: _423  and  _424
REMARK  179  A    between atoms: _423  and  _426
REMARK  180  A    between atoms: _426  and  _427
REMARK  181  A    between atoms: _430  and  _432
REMARK  182  A    between atoms: _432  and  _433
REMARK  183  A    between atoms: _435  and  _437
REMARK  184  A    between atoms: _437  and  _438
REMARK  185  A    between atoms: _440  and  _442
REMARK  186  A    between atoms: _442  and  _443
REMARK  187  A    between atoms: _442  and  _445
REMARK  188  A    between atoms: _445  and  _446
REMARK  189  A    between atoms: _452  and  _454
REMARK  190  A    between atoms: _454  and  _455
REMARK  191  A    between atoms: _454  and  _457
REMARK  192  A    between atoms: _457  and  _458
REMARK  193  A    between atoms: _461  and  _463
REMARK  194  A    between atoms: _463  and  _464
REMARK  195  A    between atoms: _463  and  _466
REMARK  196  A    between atoms: _469  and  _471
REMARK  197  A    between atoms: _471  and  _472
REMARK  198  A    between atoms: _471  and  _474
REMARK  199  A    between atoms: _474  and  _475
REMARK  200  A    between atoms: _479  and  _480
REMARK  201  A    between atoms: _485  and  _487
REMARK  202  A    between atoms: _487  and  _488
REMARK  203  A    between atoms: _487  and  _490
REMARK  204  A    between atoms: _490  and  _491
REMARK  205  A    between atoms: _495  and  _496
REMARK  206  A    between atoms: _501  and  _503
REMARK  207  A    between atoms: _503  and  _504
REMARK  208  A    between atoms: _503  and  _506
REMARK  209  A    between atoms: _509  and  _511
REMARK  210  A    between atoms: _511  and  _512
REMARK  211  A    between atoms: _511  and  _514
REMARK  212  A    between atoms: _514  and  _515
REMARK  213  A    between atoms: _520  and  _522
REMARK  214  A    between atoms: _522  and  _523
REMARK  215  A    between atoms: _522  and  _525
REMARK  216  A    between atoms: _525  and  _526
REMARK  217  A    between atoms: _529  and  _531
REMARK  218  A    between atoms: _531  and  _532
REMARK  219  A    between atoms: _531  and  _534
REMARK  220  A    between atoms: _534  and  _535
REMARK  221  A    between atoms: _538  and  _540
REMARK  222  A    between atoms: _540  and  _541
REMARK  223  A    between atoms: _543  and  _545
REMARK  224  A    between atoms: _545  and  _546
REMARK  225  A    between atoms: _545  and  _548
REMARK  226  A    between atoms: _548  and  _549
REMARK  227  A    between atoms: _549  and  _550
REMARK  228  A    between atoms: _550  and  _551
REMARK  229  A    between atoms: _560  and  _562
REMARK  230  A    between atoms: _562  and  _563
REMARK  231  A    between atoms: _562  and  _565
REMARK  232  A    between atoms: _565  and  _566
REMARK                            x       y       z     vdW  Elec       q    Type
REMARK                         _______ _______ _______ _____ _____    ______ ____
ROOT
ATOM      1  C   GLY A   5      21.052   3.471  15.369  0.00  0.00    +0.243 C 
ATOM      2  O   GLY A   5      20.590   3.393  16.504  0.00  0.00    -0.273 OA
ATOM      3  N   ALA A   6      22.362   3.427  15.152  0.00  0.00    -0.297 N 
ATOM      4  H   ALA A   6      22.691   3.461  14.166  0.00  0.00    +0.150 HD
ENDROOT
BRANCH   3   5
ATOM      5  CA  ALA A   6      23.385   3.333  16.215  0.00  0.00    +0.149 C 
ATOM      6  CB  ALA A   6      24.481   2.351  15.756  0.00  0.00    +0.031 C 
BRANCH   5   7
ATOM      7  C   ALA A   6      24.010   4.670  16.526  0.00  0.00    +0.241 C 
ATOM      8  N   ASP A   7      23.985   5.091  17.794  0.00  0.00    -0.297 N 
ATOM      9  H   ASP A   7      23.521   4.513  18.524  0.00  0.00    +0.150 HD
ATOM     10  O   ALA A   6      24.527   5.333  15.608  0.00  0.00    -0.273 OA
BRANCH   8  11
ATOM     11  CA  ASP A   7      24.610   6.365  18.157  0.00  0.00    +0.160 C 
BRANCH  11  12
ATOM     12  C   ASP A   7      26.148   6.304  17.993  0.00  0.00    +0.241 C 
ATOM     13  N   ASP A   8      26.680   5.149  18.320  0.00  0.00    -0.297 N 
ATOM     14  H   ASP A   8      26.034   4.355  18.504  0.00  0.00    +0.150 HD
ATOM     15  O   ASP A   7      26.783   7.303  17.645  0.00  0.00    -0.273 OA
BRANCH  13  16
ATOM     16  CA  ASP A   8      28.106   4.902  18.443  0.00  0.00    +0.160 C 
BRANCH  16  17
ATOM     17  C   ASP A   8      28.604   3.843  17.428  0.00  0.00    +0.241 C 
ATOM     18  N   THR A   9      29.875   3.780  17.168  0.00  0.00    -0.295 N 
ATOM     19  H   THR A   9      30.453   4.565  17.532  0.00  0.00    +0.150 HD
ATOM     20  O   ASP A   8      27.783   3.084  16.884  0.00  0.00    -0.273 OA
BRANCH  18  21
ATOM     21  CA  THR A   9      30.588   2.758  16.437  0.00  0.00    +0.176 C 
BRANCH  21  22
ATOM     22  C   THR A   9      31.060   1.658  17.409  0.00  0.00    +0.243 C 
ATOM     23  O   THR A   9      31.742   1.956  18.399  0.00  0.00    -0.273 OA
ATOM     24  N   VAL A  10      30.714   0.403  17.143  0.00  0.00    -0.298 N 
ATOM     25  H   VAL A  10      30.249   0.210  16.233  0.00  0.00    +0.150 HD
BRANCH  24  26
ATOM     26  CA  VAL A  10      30.941  -0.714  18.036  0.00  0.00    +0.137 C 
BRANCH  26  27
ATOM     27  CB  VAL A  10      29.658  -1.171  18.815  0.00  0.00    +0.026 C 
ATOM     28  CG2 VAL A  10      30.127  -2.068  19.959  0.00  0.00    +0.002 C 
ATOM     29  CG1 VAL A  10      28.790   0.009  19.256  0.00  0.00    +0.002 C 
ENDBRANCH  26  27
BRANCH  26  30
ATOM     30  C   VAL A  10      31.523  -1.876  17.202  0.00  0.00    +0.227 C 
ATOM     31  O   VAL A  10      30.840  -2.348  16.265  0.00  0.00    -0.286 OA
ENDBRANCH  26  30
ENDBRANCH  24  26
ENDBRANCH  21  22
BRANCH  21  32
ATOM     32  CB  THR A   9      31.755   3.417  15.709  0.00  0.00    +0.137 C 
ATOM     33  CG2 THR A   9      32.699   2.423  15.021  0.00  0.00    +0.034 C 
BRANCH  32  34
ATOM     34  OG1 THR A   9      31.209   4.325  14.693  0.00  0.00    -0.382 OA
ATOM     35  HG1 THR A   9      30.650   5.013  15.133  0.00  0.00    +0.210 HD
ENDBRANCH  32  34
ENDBRANCH  21  32
ENDBRANCH  18  21
ENDBRANCH  16  17
BRANCH  16  36
ATOM     36  CB  ASP A   8      28.408   4.386  19.869  0.00  0.00    +0.143 C 
BRANCH  36  37
ATOM     37  CG  ASP A   8      27.773   5.197  20.955  0.00  0.00    +0.367 C 
ATOM     38  OD2 ASP A   8      26.825   4.702  21.631  0.00  0.00    -0.246 OA
ATOM     39  OD1 ASP A   8      28.161   6.376  21.106  0.00  0.00    -0.246 OA
ENDBRANCH  36  37
ENDBRANCH  16  36
ENDBRANCH  13  16
ENDBRANCH  11  12
BRANCH  11  40
ATOM     40  CB  ASP A   7      24.237   6.811  19.569  0.00  0.00    +0.143 C 
BRANCH  40  41
ATOM     41  CG  ASP A   7      22.757   6.980  19.875  0.00  0.00    +0.367 C 
ATOM     42  OD2 ASP A   7      22.397   6.926  21.081  0.00  0.00    -0.246 OA
ATOM     43  OD1 ASP A   7      21.944   7.179  18.932  0.00  0.00    -0.246 OA
ENDBRANCH  40  41
ENDBRANCH  11  40
ENDBRANCH   8  11
ENDBRANCH   5   7
ENDBRANCH   3   5
BRANCH   1  44
ATOM     44  CA  GLY A   5      20.114   3.590  14.179  0.00  0.00    +0.176 C 
BRANCH  44  47
ATOM     45  C   THR A   4      21.162   4.909  12.412  0.00  0.00    +0.243 C 
ATOM     46  O   THR A   4      20.925   5.964  12.989  0.00  0.00    -0.273 OA
ATOM     47  N   GLY A   5      20.782   3.713  12.893  0.00  0.00    -0.295 N 
ATOM     48  H   GLY A   5      20.970   2.857  12.333  0.00  0.00    +0.150 HD
BRANCH  45  49
ATOM     49  CA  THR A   4      21.953   4.992  11.109  0.00  0.00    +0.176 C 
BRANCH  49  52
ATOM     50  C   ASP A   3      23.515   3.077  11.342  0.00  0.00    +0.241 C 
ATOM     51  O   ASP A   3      23.983   3.622  12.342  0.00  0.00    -0.273 OA
ATOM     52  N   THR A   4      22.518   3.703  10.757  0.00  0.00    -0.295 N 
ATOM     53  H   THR A   4      22.083   3.217   9.947  0.00  0.00    +0.150 HD
BRANCH  50  54
ATOM     54  CA  ASP A   3      23.973   1.716  10.791  0.00  0.00    +0.160 C 
BRANCH  54  56
ATOM     55  C   LEU A   2      25.177   1.430   8.641  0.00  0.00    +0.241 C 
ATOM     56  N   ASP A   3      25.147   1.823   9.933  0.00  0.00    -0.297 N 
ATOM     57  H   ASP A   3      26.014   2.227  10.341  0.00  0.00    +0.150 HD
ATOM     58  O   LEU A   2      24.160   1.093   8.015  0.00  0.00    -0.273 OA
BRANCH  55  59
ATOM     59  CA  LEU A   2      26.578   1.315   8.021  0.00  0.00    +0.149 C 
BRANCH  59  62
ATOM     60  C   LEU A   1      27.367  -0.825   8.923  0.00  0.00    +0.238 C 
ATOM     61  O   LEU A   1      27.663  -0.335  10.031  0.00  0.00    -0.274 OA
ATOM     62  N   LEU A   2      26.896  -0.098   7.888  0.00  0.00    -0.297 N 
ATOM     63  H   LEU A   2      26.756  -0.562   6.968  0.00  0.00    +0.150 HD
BRANCH  60  64
ATOM     64  CA  LEU A   1      27.599  -2.319   8.719  0.00  0.00    +0.145 C 
BRANCH  64  65
ATOM     65  N   LEU A   1      28.967  -2.762   9.040  0.00  0.00    -0.238 NA
ATOM     66  H   LEU A   1      29.153  -3.014  10.032  0.00  0.00    +0.142 HD
ENDBRANCH  64  65
BRANCH  64  67
ATOM     67  CB  LEU A   1      26.630  -3.113   9.595  0.00  0.00    +0.026 C 
BRANCH  67  68
ATOM     68  CG  LEU A   1      25.124  -2.852   9.389  0.00  0.00    +0.002 C 
ATOM     69  CD2 LEU A   1      24.275  -3.542  10.459  0.00  0.00    +0.000 C 
ATOM     70  CD1 LEU A   1      24.673  -3.286   8.008  0.00  0.00    +0.000 C 
ENDBRANCH  67  68
ENDBRANCH  64  67
ENDBRANCH  60  64
ENDBRANCH  59  62
BRANCH  59  71
ATOM     71  CB  LEU A   2      26.681   1.987   6.669  0.00  0.00    +0.029 C 
BRANCH  71  72
ATOM     72  CG  LEU A   2      27.983   1.921   5.881  0.00  0.00    +0.002 C 
ATOM     73  CD2 LEU A   2      29.167   2.441   6.665  0.00  0.00    +0.000 C 
ATOM     74  CD1 LEU A   2      27.843   2.715   4.558  0.00  0.00    +0.000 C 
ENDBRANCH  71  72
ENDBRANCH  59  71
ENDBRANCH  55  59
ENDBRANCH  54  56
BRANCH  54  75
ATOM     75  CB  ASP A   3      24.304   0.756  11.942  0.00  0.00    +0.143 C 
BRANCH  75  76
ATOM     76  CG  ASP A   3      23.133   0.327  12.767  0.00  0.00    +0.367 C 
ATOM     77  OD2 ASP A   3      23.269  -0.669  13.530  0.00  0.00    -0.246 OA
ATOM     78  OD1 ASP A   3      22.069   1.064  12.693  0.00  0.00    -0.246 OA
ENDBRANCH  75  76
ENDBRANCH  54  75
ENDBRANCH  50  54
ENDBRANCH  49  52
BRANCH  49  79
ATOM     79  CB  THR A   4      21.052   5.602  10.003  0.00  0.00    +0.137 C 
ATOM     80  CG2 THR A   4      21.829   5.811   8.698  0.00  0.00    +0.034 C 
BRANCH  79  81
ATOM     81  OG1 THR A   4      19.934   4.745   9.680  0.00  0.00    -0.382 OA
ATOM     82  HG1 THR A   4      19.380   4.608  10.489  0.00  0.00    +0.210 HD
ENDBRANCH  79  81
ENDBRANCH  49  79
ENDBRANCH  45  49
ENDBRANCH  44  47
ENDBRANCH   1  44
TORSDOF 35
REMARK  Name = ../refined-set-2016/1kzk/1kzk_pocket.pdb
REMARK  232 active torsions:
REMARK  status: ('A' for Active; 'I' for Inactive)
REMARK    1  A    between atoms: _1  and  _3
REMARK    2  A    between atoms: _3  and  _4
REMARK    3  A    between atoms: _3  and  _6
REMARK    4  A    between atoms: _6  and  _7
REMARK    5  A    between atoms: _7  and  _8
REMARK    6  A    between atoms: _8  and  _9
REMARK    7  A    between atoms: _18  and  _20
REMARK    8  A    between atoms: _20  and  _21
REMARK    9  A    between atoms: _20  and  _23
REMARK   10  A    between atoms: _23  and  _24
REMARK   11  A    between atoms: _27  and  _29
REMARK   12  A    between atoms: _29  and  _30
REMARK   13  A    between atoms: _29  and  _32
REMARK   14  A    between atoms: _32  and  _33
REMARK   15  A    between atoms: _36  and  _38
REMARK   16  A    between atoms: _38  and  _39
REMARK   17  A    between atoms: _38  and  _41
REMARK   18  A    between atoms: _41  and  _42
REMARK   19  A    between atoms: _45  and  _47
REMARK   20  A    between atoms: _47  and  _48
REMARK   21  A    between atoms: _47  and  _50
REMARK   22  A    between atoms: _50  and  _51
REMARK   23  A    between atoms: _54  and  _56
REMARK   24  A    between atoms: _56  and  _57
REMARK   25  A    between atoms: _59  and  _61
REMARK   26  A    between atoms: _61  and  _62
REMARK   27  A    between atoms: _65  and  _67
REMARK   28  A    between atoms: _67  and  _68
REMARK   29  A    between atoms: _67  and  _70
REMARK   30  A    between atoms: _70  and  _71
REMARK   31  A    between atoms: _74  and  _76
REMARK   32  A    between atoms: _76  and  _77
REMARK   33  A    between atoms: _76  and  _79
REMARK   34  A    between atoms: _79  and  _80
REMARK   35  A    between atoms: _83  and  _85
REMARK   36  A    between atoms: _85  and  _86
REMARK   37  A    between atoms: _85  and  _88
REMARK   38  A    between atoms: _88  and  _89
REMARK   39  A    between atoms: _92  and  _94
REMARK   40  A    between atoms: _94  and  _95
REMARK   41  A    between atoms: _94  and  _97
REMARK   42  A    between atoms: _100  and  _102
REMARK   43  A    between atoms: _102  and  _103
REMARK   44  A    between atoms: _102  and  _105
REMARK   45  A    between atoms: _106  and  _107
REMARK   46  A    between atoms: _107  and  _108
REMARK   47  A    between atoms: _108  and  _109
REMARK   48  A    between atoms: _113  and  _115
REMARK   49  A    between atoms: _115  and  _116
REMARK   50  A    between atoms: _115  and  _118
REMARK   51  A    between atoms: _118  and  _119
REMARK   52  A    between atoms: _119  and  _120
REMARK   53  A    between atoms: _122  and  _124
REMARK   54  A    between atoms: _124  and  _125
REMARK   55  A    between atoms: _124  and  _127
REMARK   56  A    between atoms: _127  and  _128
REMARK   57  A    between atoms: _131  and  _133
REMARK   58  A    between atoms: _133  and  _134
REMARK   59  A    between atoms: _136  and  _138
REMARK   60  A    between atoms: _138  and  _139
REMARK   61  A    between atoms: _141  and  _143
REMARK   62  A    between atoms: _143  and  _144
REMARK   63  A    between atoms: _143  and  _146
REMARK   64  A    between atoms: _146  and  _147
REMARK   65  A    between atoms: _150  and  _152
REMARK   66  A    between atoms: _152  and  _153
REMARK   67  A    between atoms: _155  and  _157
REMARK   68  A    between atoms: _157  and  _158
REMARK   69  A    between atoms: _160  and  _162
REMARK   70  A    between atoms: _162  and  _163
REMARK   71  A    between atoms: _162  and  _165
REMARK   72  A    between atoms: _165  and  _166
REMARK   73  A    between atoms: _169  and  _171
REMARK   74  A    between atoms: _171  and  _172
REMARK   75  A    between atoms: _171  and  _174
REMARK   76  A    between atoms: _177  and  _179
REMARK   77  A    between atoms: _179  and  _180
REMARK   78  A    between atoms: _179  and  _182
REMARK   79  A    between atoms: _182  and  _183
REMARK   80  A    between atoms: _186  and  _188
REMARK   81  A    between atoms: _188  and  _189
REMARK   82  A    between atoms: _188  and  _191
REMARK   83  A    between atoms: _191  and  _192
REMARK   84  A    between atoms: _196  and  _197
REMARK   85  A    between atoms: _202  and  _204
REMARK   86  A    between atoms: _204  and  _205
REMARK   87  A    between atoms: _204  and  _207
REMARK   88  A    between atoms: _210  and  _212
REMARK   89  A    between atoms: _212  and  _213
REMARK   90  A    between atoms: _212  and  _215
REMARK   91  A    between atoms: _215  and  _216
REMARK   92  A    between atoms: _221  and  _223
REMARK   93  A    between atoms: _223  and  _224
REMARK   94  A    between atoms: _223  and  _226
REMARK   95  A    between atoms: _226  and  _227
REMARK   96  A    between atoms: _230  and  _232
REMARK   97  A    between atoms: _232  and  _233
REMARK   98  A    between atoms: _232  and  _235
REMARK   99  A    between atoms: _235  and  _236
REMARK  100  A    between atoms: _239  and  _241
REMARK  101  A    between atoms: _241  and  _242
REMARK  102  A    between atoms: _244  and  _246
REMARK  103  A    between atoms: _246  and  _247
REMARK  104  A    between atoms: _246  and  _249
REMARK  105  A    between atoms: _249  and  _250
REMARK  106  A    between atoms: _250  and  _251
REMARK  107  A    between atoms: _251  and  _252
REMARK  108  A    between atoms: _261  and  _263
REMARK  109  A    between atoms: _263  and  _264
REMARK  110  A    between atoms: _263  and  _266
REMARK  111  A    between atoms: _266  and  _267
REMARK  112  A    between atoms: _272  and  _274
REMARK  113  A    between atoms: _274  and  _275
REMARK  114  A    between atoms: _274  and  _277
REMARK  115  A    between atoms: _277  and  _278
REMARK  116  A    between atoms: _278  and  _279
REMARK  117  A    between atoms: _279  and  _280
REMARK  118  A    between atoms: _289  and  _291
REMARK  119  A    between atoms: _291  and  _292
REMARK  120  A    between atoms: _291  and  _294
REMARK  121  A    between atoms: _294  and  _295
REMARK  122  A    between atoms: _298  and  _300
REMARK  123  A    between atoms: _300  and  _301
REMARK  124  A    between atoms: _300  and  _303
REMARK  125  A    between atoms: _303  and  _304
REMARK  126  A    between atoms: _307  and  _309
REMARK  127  A    between atoms: _309  and  _310
REMARK  128  A    between atoms: _309  and  _312
REMARK  129  A    between atoms: _312  and  _313
REMARK  130  A    between atoms: _316  and  _318
REMARK  131  A    between atoms: _318  and  _319
REMARK  132  A    between atoms: _318  and  _321
REMARK  133  A    between atoms: _321  and  _322
REMARK  134  A    between atoms: _325  and  _327
REMARK  135  A    between atoms: _327  and  _328
REMARK  136  A    between atoms: _330  and  _332
REMARK  137  A    between atoms: _332  and  _333
REMARK  138  A    between atoms: _336  and  _338
REMARK  139  A    between atoms: _338  and  _339
REMARK  140  A    between atoms: _338  and  _341
REMARK  141  A    between atoms: _341  and  _342
REMARK  142  A    between atoms: _345  and  _347
REMARK  143  A    between atoms: _347  and  _348
REMARK  144  A    between atoms: _347  and  _350
REMARK  145  A    between atoms: _350  and  _351
REMARK  146  A    between atoms: _354  and  _356
REMARK  147  A    between atoms: _356  and  _357
REMARK  148  A    between atoms: _356  and  _359
REMARK  149  A    between atoms: _359  and  _360
REMARK  150  A    between atoms: _363  and  _365
REMARK  151  A    between atoms: _365  and  _366
REMARK  152  A    between atoms: _365  and  _368
REMARK  153  A    between atoms: _371  and  _373
REMARK  154  A    between atoms: _373  and  _374
REMARK  155  A    between atoms: _373  and  _376
REMARK  156  A    between atoms: _376  and  _377
REMARK  157  A    between atoms: _380  and  _382
REMARK  158  A    between atoms: _382  and  _383
REMARK  159  A    between atoms: _382  and  _385
REMARK  160  A    between atoms: _385  and  _386
REMARK  161  A    between atoms: _386  and  _387
REMARK  162  A    between atoms: _387  and  _388
REMARK  163  A    between atoms: _388  and  _389
REMARK  164  A    between atoms: _393  and  _395
REMARK  165  A    between atoms: _395  and  _396
REMARK  166  A    between atoms: _395  and  _398
REMARK  167  A    between atoms: _398  and  _399
REMARK  168  A    between atoms: _399  and  _400
REMARK  169  A    between atoms: _402  and  _404
REMARK  170  A    between atoms: _404  and  _405
REMARK  171  A    between atoms: _404  and  _407
REMARK  172  A    between atoms: _407  and  _408
REMARK  173  A    between atoms: _411  and  _413
REMARK  174  A    between atoms: _413  and  _414
REMARK  175  A    between atoms: _416  and  _418
REMARK  176  A    between atoms: _418  and  _419
REMARK  177  A    between atoms: _421  and  _423
REMARK  178  A    between atoms: _423  and  _424
REMARK  179  A    between atoms: _423  and  _426
REMARK  180  A    between atoms: _426  and  _427
REMARK  181  A    between atoms: _430  and  _432
REMARK  182  A    between atoms: _432  and  _433
REMARK  183  A    between atoms: _435  and  _437
REMARK  184  A    between atoms: _437  and  _438
REMARK  185  A    between atoms: _440  and  _442
REMARK  186  A    between atoms: _442  and  _443
REMARK  187  A    between atoms: _442  and  _445
REMARK  188  A    between atoms: _445  and  _446
REMARK  189  A    between atoms: _452  and  _454
REMARK  190  A    between atoms: _454  and  _455
REMARK  191  A    between atoms: _454  and  _457
REMARK  192  A    between atoms: _457  and  _458
REMARK  193  A    between atoms: _461  and  _463
REMARK  194  A    between atoms: _463  and  _464
REMARK  195  A    between atoms: _463  and  _466
REMARK  196  A    between atoms: _469  and  _471
REMARK  197  A    between atoms: _471  and  _472
REMARK  198  A    between atoms: _471  and  _474
REMARK  199  A    between atoms: _474  and  _475
REMARK  200  A    between atoms: _479  and  _480
REMARK  201  A    between atoms: _485  and  _487
REMARK  202  A    between atoms: _487  and  _488
REMARK  203  A    between atoms: _487  and  _490
REMARK  204  A    between atoms: _490  and  _491
REMARK  205  A    between atoms: _495  and  _496
REMARK  206  A    between atoms: _501  and  _503
REMARK  207  A    between atoms: _503  and  _504
REMARK  208  A    between atoms: _503  and  _506
REMARK  209  A    between atoms: _509  and  _511
REMARK  210  A    between atoms: _511  and  _512
REMARK  211  A    between atoms: _511  and  _514
REMARK  212  A    between atoms: _514  and  _515
REMARK  213  A    between atoms: _520  and  _522
REMARK  214  A    between atoms: _522  and  _523
REMARK  215  A    between atoms: _522  and  _525
REMARK  216  A    between atoms: _525  and  _526
REMARK  217  A    between atoms: _529  and  _531
REMARK  218  A    between atoms: _531  and  _532
REMARK  219  A    between atoms: _531  and  _534
REMARK  220  A    between atoms: _534  and  _535
REMARK  221  A    between atoms: _538  and  _540
REMARK  222  A    between atoms: _540  and  _541
REMARK  223  A    between atoms: _543  and  _545
REMARK  224  A    between atoms: _545  and  _546
REMARK  225  A    between atoms: _545  and  _548
REMARK  226  A    between atoms: _548  and  _549
REMARK  227  A    between atoms: _549  and  _550
REMARK  228  A    between atoms: _550  and  _551
REMARK  229  A    between atoms: _560  and  _562
REMARK  230  A    between atoms: _562  and  _563
REMARK  231  A    between atoms: _562  and  _565
REMARK  232  A    between atoms: _565  and  _566
REMARK                            x       y       z     vdW  Elec       q    Type
REMARK                         _______ _______ _______ _____ _____    ______ ____
ROOT
ATOM      1  C   ILE A   3      24.395   0.095  25.829  0.00  0.00    +0.241 C 
ATOM      2  O   ILE A   3      24.461  -1.062  26.246  0.00  0.00    -0.273 OA
ATOM      3  N   GLY A   4      23.265   0.619  25.298  0.00  0.00    -0.295 N 
ATOM      4  H   GLY A   4      23.259   1.602  24.958  0.00  0.00    +0.150 HD
ENDROOT
BRANCH   3   5
ATOM      5  CA  GLY A   4      22.043  -0.199  25.200  0.00  0.00    +0.176 C 
BRANCH   5   6
ATOM      6  C   GLY A   4      21.468  -0.198  23.797  0.00  0.00    +0.243 C 
ATOM      7  N   GLY A   5      21.019  -1.384  23.413  0.00  0.00    -0.295 N 
ATOM      8  H   GLY A   5      21.120  -2.186  24.067  0.00  0.00    +0.150 HD
ATOM      9  O   GLY A   4      21.430   0.795  23.052  0.00  0.00    -0.273 OA
BRANCH   7  10
ATOM     10  CA  GLY A   5      20.383  -1.623  22.105  0.00  0.00    +0.176 C 
BRANCH  10  11
ATOM     11  C   GLY A   5      19.062  -2.371  22.246  0.00  0.00    +0.243 C 
ATOM     12  O   GLY A   5      18.376  -2.277  23.273  0.00  0.00    -0.273 OA
ATOM     13  N   ILE A   6      18.687  -3.173  21.213  0.00  0.00    -0.297 N 
ATOM     14  H   ILE A   6      19.367  -3.375  20.453  0.00  0.00    +0.150 HD
BRANCH  13  15
ATOM     15  CA  ILE A   6      17.350  -3.757  21.148  0.00  0.00    +0.149 C 
BRANCH  15  16
ATOM     16  C   ILE A   6      17.079  -4.715  22.303  0.00  0.00    +0.241 C 
ATOM     17  N   GLY A   7      18.110  -5.398  22.805  0.00  0.00    -0.295 N 
ATOM     18  H   GLY A   7      19.062  -5.184  22.446  0.00  0.00    +0.150 HD
ATOM     19  O   ILE A   6      15.930  -4.821  22.724  0.00  0.00    -0.273 OA
BRANCH  17  20
ATOM     20  CA  GLY A   7      17.977  -6.415  23.816  0.00  0.00    +0.176 C 
BRANCH  20  21
ATOM     21  C   GLY A   7      18.321  -5.973  25.225  0.00  0.00    +0.243 C 
ATOM     22  O   GLY A   7      18.079  -6.704  26.161  0.00  0.00    -0.273 OA
ATOM     23  N   GLY A   8      18.832  -4.769  25.425  0.00  0.00    -0.296 N 
ATOM     24  H   GLY A   8      18.873  -4.099  24.630  0.00  0.00    +0.150 HD
BRANCH  23  25
ATOM     25  CA  GLY A   8      19.328  -4.364  26.697  0.00  0.00    +0.163 C 
BRANCH  25  26
ATOM     26  C   GLY A   8      20.747  -3.820  26.652  0.00  0.00    +0.229 C 
ATOM     27  O   GLY A   8      21.240  -3.450  25.577  0.00  0.00    -0.286 OA
ENDBRANCH  25  26
ENDBRANCH  23  25
ENDBRANCH  20  21
ENDBRANCH  17  20
ENDBRANCH  15  16
BRANCH  15  28
ATOM     28  CB  ILE A   6      17.148  -4.474  19.794  0.00  0.00    +0.027 C 
ATOM     29  CG2 ILE A   6      17.960  -5.748  19.639  0.00  0.00    +0.002 C 
BRANCH  28  30
ATOM     30  CG1 ILE A   6      15.683  -4.824  19.501  0.00  0.00    +0.002 C 
ATOM     31  CD1 ILE A   6      14.757  -3.661  19.387  0.00  0.00    +0.000 C 
ENDBRANCH  28  30
ENDBRANCH  15  28
ENDBRANCH  13  15
ENDBRANCH  10  11
ENDBRANCH   7  10
ENDBRANCH   5   6
ENDBRANCH   3   5
BRANCH   1  32
ATOM     32  CA  ILE A   3      25.610   1.023  25.864  0.00  0.00    +0.149 C 
BRANCH  32  35
ATOM     33  C   MET A   2      27.059   1.406  27.856  0.00  0.00    +0.241 C 
ATOM     34  O   MET A   2      26.905   2.608  27.855  0.00  0.00    -0.273 OA
ATOM     35  N   ILE A   3      26.512   0.596  26.939  0.00  0.00    -0.297 N 
ATOM     36  H   ILE A   3      26.746  -0.416  26.994  0.00  0.00    +0.150 HD
BRANCH  33  37
ATOM     37  CA  MET A   2      27.933   0.762  28.934  0.00  0.00    +0.149 C 
BRANCH  37  39
ATOM     38  C   LYS A   1      30.356   1.172  29.019  0.00  0.00    +0.243 C 
ATOM     39  N   MET A   2      29.103   1.608  29.137  0.00  0.00    -0.297 N 
ATOM     40  H   MET A   2      28.951   2.606  29.387  0.00  0.00    +0.150 HD
ATOM     41  O   LYS A   1      30.634  -0.012  28.801  0.00  0.00    -0.273 OA
BRANCH  38  42
ATOM     42  CA  LYS A   1      31.485   2.193  29.195  0.00  0.00    +0.167 C 
BRANCH  42  43
ATOM     43  CB  LYS A   1      31.666   3.013  27.886  0.00  0.00    -0.005 C 
ATOM     44  CG  LYS A   1      30.485   3.774  27.341  0.00  0.00    -0.031 C 
BRANCH  44  45
ATOM     45  CD  LYS A   1      30.633   4.533  26.067  0.00  0.00    +0.002 C 
BRANCH  45  46
ATOM     46  CE  LYS A   1      29.307   5.183  25.673  0.00  0.00    -0.081 C 
BRANCH  46  47
ATOM     47  NZ  LYS A   1      29.219   6.623  26.001  0.00  0.00    +0.381 N 
ATOM     48  HZ1 LYS A   1      29.330   6.751  27.027  0.00  0.00    -0.089 HD
ATOM     49  HZ2 LYS A   1      28.292   6.989  25.703  0.00  0.00    -0.089 HD
ATOM     50  HZ3 LYS A   1      29.973   7.138  25.502  0.00  0.00    -0.089 HD
ENDBRANCH  46  47
ENDBRANCH  45  46
ENDBRANCH  44  45
ENDBRANCH  42  43
BRANCH  42  51
ATOM     51  N   LYS A   1      32.720   1.561  29.582  0.00  0.00    -0.234 NA
ATOM     52  H   LYS A   1      32.823   0.587  29.232  0.00  0.00    +0.142 HD
ENDBRANCH  42  51
ENDBRANCH  38  42
ENDBRANCH  37  39
BRANCH  37  53
ATOM     53  CB  MET A   2      27.111   0.523  30.224  0.00  0.00    +0.041 C 
BRANCH  53  54
ATOM     54  CG  MET A   2      27.896  -0.411  31.202  0.00  0.00    +0.060 C 
BRANCH  54  55
ATOM     55  SD  MET A   2      26.943  -0.600  32.772  0.00  0.00    -0.139 S 
ATOM     56  CE  MET A   2      25.568  -1.492  32.112  0.00  0.00    +0.069 C 
ENDBRANCH  54  55
ENDBRANCH  53  54
ENDBRANCH  37  53
ENDBRANCH  33  37
ENDBRANCH  32  35
BRANCH  32  57
ATOM     57  CB  ILE A   3      26.238   1.085  24.451  0.00  0.00    +0.027 C 
ATOM     58  CG2 ILE A   3      27.372   2.121  24.434  0.00  0.00    +0.002 C 
BRANCH  57  59
ATOM     59  CG1 ILE A   3      26.725  -0.257  23.954  0.00  0.00    +0.002 C 
ATOM     60  CD1 ILE A   3      27.327  -0.259  22.528  0.00  0.00    +0.000 C 
ENDBRANCH  57  59
ENDBRANCH  32  57
ENDBRANCH   1  32
TORSDOF 27
REMARK  Name = ../refined-set-2016/1kzk/1kzk_pocket.pdb
REMARK  232 active torsions:
REMARK  status: ('A' for Active; 'I' for Inactive)
REMARK    1  A    between atoms: _1  and  _3
REMARK    2  A    between atoms: _3  and  _4
REMARK    3  A    between atoms: _3  and  _6
REMARK    4  A    between atoms: _6  and  _7
REMARK    5  A    between atoms: _7  and  _8
REMARK    6  A    between atoms: _8  and  _9
REMARK    7  A    between atoms: _18  and  _20
REMARK    8  A    between atoms: _20  and  _21
REMARK    9  A    between atoms: _20  and  _23
REMARK   10  A    between atoms: _23  and  _24
REMARK   11  A    between atoms: _27  and  _29
REMARK   12  A    between atoms: _29  and  _30
REMARK   13  A    between atoms: _29  and  _32
REMARK   14  A    between atoms: _32  and  _33
REMARK   15  A    between atoms: _36  and  _38
REMARK   16  A    between atoms: _38  and  _39
REMARK   17  A    between atoms: _38  and  _41
REMARK   18  A    between atoms: _41  and  _42
REMARK   19  A    between atoms: _45  and  _47
REMARK   20  A    between atoms: _47  and  _48
REMARK   21  A    between atoms: _47  and  _50
REMARK   22  A    between atoms: _50  and  _51
REMARK   23  A    between atoms: _54  and  _56
REMARK   24  A    between atoms: _56  and  _57
REMARK   25  A    between atoms: _59  and  _61
REMARK   26  A    between atoms: _61  and  _62
REMARK   27  A    between atoms: _65  and  _67
REMARK   28  A    between atoms: _67  and  _68
REMARK   29  A    between atoms: _67  and  _70
REMARK   30  A    between atoms: _70  and  _71
REMARK   31  A    between atoms: _74  and  _76
REMARK   32  A    between atoms: _76  and  _77
REMARK   33  A    between atoms: _76  and  _79
REMARK   34  A    between atoms: _79  and  _80
REMARK   35  A    between atoms: _83  and  _85
REMARK   36  A    between atoms: _85  and  _86
REMARK   37  A    between atoms: _85  and  _88
REMARK   38  A    between atoms: _88  and  _89
REMARK   39  A    between atoms: _92  and  _94
REMARK   40  A    between atoms: _94  and  _95
REMARK   41  A    between atoms: _94  and  _97
REMARK   42  A    between atoms: _100  and  _102
REMARK   43  A    between atoms: _102  and  _103
REMARK   44  A    between atoms: _102  and  _105
REMARK   45  A    between atoms: _106  and  _107
REMARK   46  A    between atoms: _107  and  _108
REMARK   47  A    between atoms: _108  and  _109
REMARK   48  A    between atoms: _113  and  _115
REMARK   49  A    between atoms: _115  and  _116
REMARK   50  A    between atoms: _115  and  _118
REMARK   51  A    between atoms: _118  and  _119
REMARK   52  A    between atoms: _119  and  _120
REMARK   53  A    between atoms: _122  and  _124
REMARK   54  A    between atoms: _124  and  _125
REMARK   55  A    between atoms: _124  and  _127
REMARK   56  A    between atoms: _127  and  _128
REMARK   57  A    between atoms: _131  and  _133
REMARK   58  A    between atoms: _133  and  _134
REMARK   59  A    between atoms: _136  and  _138
REMARK   60  A    between atoms: _138  and  _139
REMARK   61  A    between atoms: _141  and  _143
REMARK   62  A    between atoms: _143  and  _144
REMARK   63  A    between atoms: _143  and  _146
REMARK   64  A    between atoms: _146  and  _147
REMARK   65  A    between atoms: _150  and  _152
REMARK   66  A    between atoms: _152  and  _153
REMARK   67  A    between atoms: _155  and  _157
REMARK   68  A    between atoms: _157  and  _158
REMARK   69  A    between atoms: _160  and  _162
REMARK   70  A    between atoms: _162  and  _163
REMARK   71  A    between atoms: _162  and  _165
REMARK   72  A    between atoms: _165  and  _166
REMARK   73  A    between atoms: _169  and  _171
REMARK   74  A    between atoms: _171  and  _172
REMARK   75  A    between atoms: _171  and  _174
REMARK   76  A    between atoms: _177  and  _179
REMARK   77  A    between atoms: _179  and  _180
REMARK   78  A    between atoms: _179  and  _182
REMARK   79  A    between atoms: _182  and  _183
REMARK   80  A    between atoms: _186  and  _188
REMARK   81  A    between atoms: _188  and  _189
REMARK   82  A    between atoms: _188  and  _191
REMARK   83  A    between atoms: _191  and  _192
REMARK   84  A    between atoms: _196  and  _197
REMARK   85  A    between atoms: _202  and  _204
REMARK   86  A    between atoms: _204  and  _205
REMARK   87  A    between atoms: _204  and  _207
REMARK   88  A    between atoms: _210  and  _212
REMARK   89  A    between atoms: _212  and  _213
REMARK   90  A    between atoms: _212  and  _215
REMARK   91  A    between atoms: _215  and  _216
REMARK   92  A    between atoms: _221  and  _223
REMARK   93  A    between atoms: _223  and  _224
REMARK   94  A    between atoms: _223  and  _226
REMARK   95  A    between atoms: _226  and  _227
REMARK   96  A    between atoms: _230  and  _232
REMARK   97  A    between atoms: _232  and  _233
REMARK   98  A    between atoms: _232  and  _235
REMARK   99  A    between atoms: _235  and  _236
REMARK  100  A    between atoms: _239  and  _241
REMARK  101  A    between atoms: _241  and  _242
REMARK  102  A    between atoms: _244  and  _246
REMARK  103  A    between atoms: _246  and  _247
REMARK  104  A    between atoms: _246  and  _249
REMARK  105  A    between atoms: _249  and  _250
REMARK  106  A    between atoms: _250  and  _251
REMARK  107  A    between atoms: _251  and  _252
REMARK  108  A    between atoms: _261  and  _263
REMARK  109  A    between atoms: _263  and  _264
REMARK  110  A    between atoms: _263  and  _266
REMARK  111  A    between atoms: _266  and  _267
REMARK  112  A    between atoms: _272  and  _274
REMARK  113  A    between atoms: _274  and  _275
REMARK  114  A    between atoms: _274  and  _277
REMARK  115  A    between atoms: _277  and  _278
REMARK  116  A    between atoms: _278  and  _279
REMARK  117  A    between atoms: _279  and  _280
REMARK  118  A    between atoms: _289  and  _291
REMARK  119  A    between atoms: _291  and  _292
REMARK  120  A    between atoms: _291  and  _294
REMARK  121  A    between atoms: _294  and  _295
REMARK  122  A    between atoms: _298  and  _300
REMARK  123  A    between atoms: _300  and  _301
REMARK  124  A    between atoms: _300  and  _303
REMARK  125  A    between atoms: _303  and  _304
REMARK  126  A    between atoms: _307  and  _309
REMARK  127  A    between atoms: _309  and  _310
REMARK  128  A    between atoms: _309  and  _312
REMARK  129  A    between atoms: _312  and  _313
REMARK  130  A    between atoms: _316  and  _318
REMARK  131  A    between atoms: _318  and  _319
REMARK  132  A    between atoms: _318  and  _321
REMARK  133  A    between atoms: _321  and  _322
REMARK  134  A    between atoms: _325  and  _327
REMARK  135  A    between atoms: _327  and  _328
REMARK  136  A    between atoms: _330  and  _332
REMARK  137  A    between atoms: _332  and  _333
REMARK  138  A    between atoms: _336  and  _338
REMARK  139  A    between atoms: _338  and  _339
REMARK  140  A    between atoms: _338  and  _341
REMARK  141  A    between atoms: _341  and  _342
REMARK  142  A    between atoms: _345  and  _347
REMARK  143  A    between atoms: _347  and  _348
REMARK  144  A    between atoms: _347  and  _350
REMARK  145  A    between atoms: _350  and  _351
REMARK  146  A    between atoms: _354  and  _356
REMARK  147  A    between atoms: _356  and  _357
REMARK  148  A    between atoms: _356  and  _359
REMARK  149  A    between atoms: _359  and  _360
REMARK  150  A    between atoms: _363  and  _365
REMARK  151  A    between atoms: _365  and  _366
REMARK  152  A    between atoms: _365  and  _368
REMARK  153  A    between atoms: _371  and  _373
REMARK  154  A    between atoms: _373  and  _374
REMARK  155  A    between atoms: _373  and  _376
REMARK  156  A    between atoms: _376  and  _377
REMARK  157  A    between atoms: _380  and  _382
REMARK  158  A    between atoms: _382  and  _383
REMARK  159  A    between atoms: _382  and  _385
REMARK  160  A    between atoms: _385  and  _386
REMARK  161  A    between atoms: _386  and  _387
REMARK  162  A    between atoms: _387  and  _388
REMARK  163  A    between atoms: _388  and  _389
REMARK  164  A    between atoms: _393  and  _395
REMARK  165  A    between atoms: _395  and  _396
REMARK  166  A    between atoms: _395  and  _398
REMARK  167  A    between atoms: _398  and  _399
REMARK  168  A    between atoms: _399  and  _400
REMARK  169  A    between atoms: _402  and  _404
REMARK  170  A    between atoms: _404  and  _405
REMARK  171  A    between atoms: _404  and  _407
REMARK  172  A    between atoms: _407  and  _408
REMARK  173  A    between atoms: _411  and  _413
REMARK  174  A    between atoms: _413  and  _414
REMARK  175  A    between atoms: _416  and  _418
REMARK  176  A    between atoms: _418  and  _419
REMARK  177  A    between atoms: _421  and  _423
REMARK  178  A    between atoms: _423  and  _424
REMARK  179  A    between atoms: _423  and  _426
REMARK  180  A    between atoms: _426  and  _427
REMARK  181  A    between atoms: _430  and  _432
REMARK  182  A    between atoms: _432  and  _433
REMARK  183  A    between atoms: _435  and  _437
REMARK  184  A    between atoms: _437  and  _438
REMARK  185  A    between atoms: _440  and  _442
REMARK  186  A    between atoms: _442  and  _443
REMARK  187  A    between atoms: _442  and  _445
REMARK  188  A    between atoms: _445  and  _446
REMARK  189  A    between atoms: _452  and  _454
REMARK  190  A    between atoms: _454  and  _455
REMARK  191  A    between atoms: _454  and  _457
REMARK  192  A    between atoms: _457  and  _458
REMARK  193  A    between atoms: _461  and  _463
REMARK  194  A    between atoms: _463  and  _464
REMARK  195  A    between atoms: _463  and  _466
REMARK  196  A    between atoms: _469  and  _471
REMARK  197  A    between atoms: _471  and  _472
REMARK  198  A    between atoms: _471  and  _474
REMARK  199  A    between atoms: _474  and  _475
REMARK  200  A    between atoms: _479  and  _480
REMARK  201  A    between atoms: _485  and  _487
REMARK  202  A    between atoms: _487  and  _488
REMARK  203  A    between atoms: _487  and  _490
REMARK  204  A    between atoms: _490  and  _491
REMARK  205  A    between atoms: _495  and  _496
REMARK  206  A    between atoms: _501  and  _503
REMARK  207  A    between atoms: _503  and  _504
REMARK  208  A    between atoms: _503  and  _506
REMARK  209  A    between atoms: _509  and  _511
REMARK  210  A    between atoms: _511  and  _512
REMARK  211  A    between atoms: _511  and  _514
REMARK  212  A    between atoms: _514  and  _515
REMARK  213  A    between atoms: _520  and  _522
REMARK  214  A    between atoms: _522  and  _523
REMARK  215  A    between atoms: _522  and  _525
REMARK  216  A    between atoms: _525  and  _526
REMARK  217  A    between atoms: _529  and  _531
REMARK  218  A    between atoms: _531  and  _532
REMARK  219  A    between atoms: _531  and  _534
REMARK  220  A    between atoms: _534  and  _535
REMARK  221  A    between atoms: _538  and  _540
REMARK  222  A    between atoms: _540  and  _541
REMARK  223  A    between atoms: _543  and  _545
REMARK  224  A    between atoms: _545  and  _546
REMARK  225  A    between atoms: _545  and  _548
REMARK  226  A    between atoms: _548  and  _549
REMARK  227  A    between atoms: _549  and  _550
REMARK  228  A    between atoms: _550  and  _551
REMARK  229  A    between atoms: _560  and  _562
REMARK  230  A    between atoms: _562  and  _563
REMARK  231  A    between atoms: _562  and  _565
REMARK  232  A    between atoms: _565  and  _566
REMARK                            x       y       z     vdW  Elec       q    Type
REMARK                         _______ _______ _______ _____ _____    ______ ____
ROOT
ATOM      1  CA  ILE A   1      26.279  -4.426  27.479  0.00  0.00    +0.133 C 
ENDROOT
BRANCH   1   2
ATOM      2  N   ILE A   1      25.027  -3.696  27.475  0.00  0.00    -0.239 NA
ATOM      3  H   ILE A   1      25.028  -2.766  27.009  0.00  0.00    +0.142 HD
ENDBRANCH   1   2
BRANCH   1   4
ATOM      4  C   ILE A   1      27.431  -3.515  27.965  0.00  0.00    +0.224 C 
ATOM      5  O   ILE A   1      27.335  -2.289  27.893  0.00  0.00    -0.287 OA
ENDBRANCH   1   4
BRANCH   1   6
ATOM      6  CB  ILE A   1      26.607  -4.993  26.090  0.00  0.00    +0.023 C 
ATOM      7  CG2 ILE A   1      25.550  -6.019  25.610  0.00  0.00    +0.002 C 
BRANCH   6   8
ATOM      8  CG1 ILE A   1      26.847  -3.949  25.006  0.00  0.00    +0.002 C 
ATOM      9  CD1 ILE A   1      27.499  -4.450  23.730  0.00  0.00    +0.000 C 
ENDBRANCH   6   8
ENDBRANCH   1   6
TORSDOF 4
REMARK  Name = ../refined-set-2016/1kzk/1kzk_pocket.pdb
REMARK  232 active torsions:
REMARK  status: ('A' for Active; 'I' for Inactive)
REMARK    1  A    between atoms: _1  and  _3
REMARK    2  A    between atoms: _3  and  _4
REMARK    3  A    between atoms: _3  and  _6
REMARK    4  A    between atoms: _6  and  _7
REMARK    5  A    between atoms: _7  and  _8
REMARK    6  A    between atoms: _8  and  _9
REMARK    7  A    between atoms: _18  and  _20
REMARK    8  A    between atoms: _20  and  _21
REMARK    9  A    between atoms: _20  and  _23
REMARK   10  A    between atoms: _23  and  _24
REMARK   11  A    between atoms: _27  and  _29
REMARK   12  A    between atoms: _29  and  _30
REMARK   13  A    between atoms: _29  and  _32
REMARK   14  A    between atoms: _32  and  _33
REMARK   15  A    between atoms: _36  and  _38
REMARK   16  A    between atoms: _38  and  _39
REMARK   17  A    between atoms: _38  and  _41
REMARK   18  A    between atoms: _41  and  _42
REMARK   19  A    between atoms: _45  and  _47
REMARK   20  A    between atoms: _47  and  _48
REMARK   21  A    between atoms: _47  and  _50
REMARK   22  A    between atoms: _50  and  _51
REMARK   23  A    between atoms: _54  and  _56
REMARK   24  A    between atoms: _56  and  _57
REMARK   25  A    between atoms: _59  and  _61
REMARK   26  A    between atoms: _61  and  _62
REMARK   27  A    between atoms: _65  and  _67
REMARK   28  A    between atoms: _67  and  _68
REMARK   29  A    between atoms: _67  and  _70
REMARK   30  A    between atoms: _70  and  _71
REMARK   31  A    between atoms: _74  and  _76
REMARK   32  A    between atoms: _76  and  _77
REMARK   33  A    between atoms: _76  and  _79
REMARK   34  A    between atoms: _79  and  _80
REMARK   35  A    between atoms: _83  and  _85
REMARK   36  A    between atoms: _85  and  _86
REMARK   37  A    between atoms: _85  and  _88
REMARK   38  A    between atoms: _88  and  _89
REMARK   39  A    between atoms: _92  and  _94
REMARK   40  A    between atoms: _94  and  _95
REMARK   41  A    between atoms: _94  and  _97
REMARK   42  A    between atoms: _100  and  _102
REMARK   43  A    between atoms: _102  and  _103
REMARK   44  A    between atoms: _102  and  _105
REMARK   45  A    between atoms: _106  and  _107
REMARK   46  A    between atoms: _107  and  _108
REMARK   47  A    between atoms: _108  and  _109
REMARK   48  A    between atoms: _113  and  _115
REMARK   49  A    between atoms: _115  and  _116
REMARK   50  A    between atoms: _115  and  _118
REMARK   51  A    between atoms: _118  and  _119
REMARK   52  A    between atoms: _119  and  _120
REMARK   53  A    between atoms: _122  and  _124
REMARK   54  A    between atoms: _124  and  _125
REMARK   55  A    between atoms: _124  and  _127
REMARK   56  A    between atoms: _127  and  _128
REMARK   57  A    between atoms: _131  and  _133
REMARK   58  A    between atoms: _133  and  _134
REMARK   59  A    between atoms: _136  and  _138
REMARK   60  A    between atoms: _138  and  _139
REMARK   61  A    between atoms: _141  and  _143
REMARK   62  A    between atoms: _143  and  _144
REMARK   63  A    between atoms: _143  and  _146
REMARK   64  A    between atoms: _146  and  _147
REMARK   65  A    between atoms: _150  and  _152
REMARK   66  A    between atoms: _152  and  _153
REMARK   67  A    between atoms: _155  and  _157
REMARK   68  A    between atoms: _157  and  _158
REMARK   69  A    between atoms: _160  and  _162
REMARK   70  A    between atoms: _162  and  _163
REMARK   71  A    between atoms: _162  and  _165
REMARK   72  A    between atoms: _165  and  _166
REMARK   73  A    between atoms: _169  and  _171
REMARK   74  A    between atoms: _171  and  _172
REMARK   75  A    between atoms: _171  and  _174
REMARK   76  A    between atoms: _177  and  _179
REMARK   77  A    between atoms: _179  and  _180
REMARK   78  A    between atoms: _179  and  _182
REMARK   79  A    between atoms: _182  and  _183
REMARK   80  A    between atoms: _186  and  _188
REMARK   81  A    between atoms: _188  and  _189
REMARK   82  A    between atoms: _188  and  _191
REMARK   83  A    between atoms: _191  and  _192
REMARK   84  A    between atoms: _196  and  _197
REMARK   85  A    between atoms: _202  and  _204
REMARK   86  A    between atoms: _204  and  _205
REMARK   87  A    between atoms: _204  and  _207
REMARK   88  A    between atoms: _210  and  _212
REMARK   89  A    between atoms: _212  and  _213
REMARK   90  A    between atoms: _212  and  _215
REMARK   91  A    between atoms: _215  and  _216
REMARK   92  A    between atoms: _221  and  _223
REMARK   93  A    between atoms: _223  and  _224
REMARK   94  A    between atoms: _223  and  _226
REMARK   95  A    between atoms: _226  and  _227
REMARK   96  A    between atoms: _230  and  _232
REMARK   97  A    between atoms: _232  and  _233
REMARK   98  A    between atoms: _232  and  _235
REMARK   99  A    between atoms: _235  and  _236
REMARK  100  A    between atoms: _239  and  _241
REMARK  101  A    between atoms: _241  and  _242
REMARK  102  A    between atoms: _244  and  _246
REMARK  103  A    between atoms: _246  and  _247
REMARK  104  A    between atoms: _246  and  _249
REMARK  105  A    between atoms: _249  and  _250
REMARK  106  A    between atoms: _250  and  _251
REMARK  107  A    between atoms: _251  and  _252
REMARK  108  A    between atoms: _261  and  _263
REMARK  109  A    between atoms: _263  and  _264
REMARK  110  A    between atoms: _263  and  _266
REMARK  111  A    between atoms: _266  and  _267
REMARK  112  A    between atoms: _272  and  _274
REMARK  113  A    between atoms: _274  and  _275
REMARK  114  A    between atoms: _274  and  _277
REMARK  115  A    between atoms: _277  and  _278
REMARK  116  A    between atoms: _278  and  _279
REMARK  117  A    between atoms: _279  and  _280
REMARK  118  A    between atoms: _289  and  _291
REMARK  119  A    between atoms: _291  and  _292
REMARK  120  A    between atoms: _291  and  _294
REMARK  121  A    between atoms: _294  and  _295
REMARK  122  A    between atoms: _298  and  _300
REMARK  123  A    between atoms: _300  and  _301
REMARK  124  A    between atoms: _300  and  _303
REMARK  125  A    between atoms: _303  and  _304
REMARK  126  A    between atoms: _307  and  _309
REMARK  127  A    between atoms: _309  and  _310
REMARK  128  A    between atoms: _309  and  _312
REMARK  129  A    between atoms: _312  and  _313
REMARK  130  A    between atoms: _316  and  _318
REMARK  131  A    between atoms: _318  and  _319
REMARK  132  A    between atoms: _318  and  _321
REMARK  133  A    between atoms: _321  and  _322
REMARK  134  A    between atoms: _325  and  _327
REMARK  135  A    between atoms: _327  and  _328
REMARK  136  A    between atoms: _330  and  _332
REMARK  137  A    between atoms: _332  and  _333
REMARK  138  A    between atoms: _336  and  _338
REMARK  139  A    between atoms: _338  and  _339
REMARK  140  A    between atoms: _338  and  _341
REMARK  141  A    between atoms: _341  and  _342
REMARK  142  A    between atoms: _345  and  _347
REMARK  143  A    between atoms: _347  and  _348
REMARK  144  A    between atoms: _347  and  _350
REMARK  145  A    between atoms: _350  and  _351
REMARK  146  A    between atoms: _354  and  _356
REMARK  147  A    between atoms: _356  and  _357
REMARK  148  A    between atoms: _356  and  _359
REMARK  149  A    between atoms: _359  and  _360
REMARK  150  A    between atoms: _363  and  _365
REMARK  151  A    between atoms: _365  and  _366
REMARK  152  A    between atoms: _365  and  _368
REMARK  153  A    between atoms: _371  and  _373
REMARK  154  A    between atoms: _373  and  _374
REMARK  155  A    between atoms: _373  and  _376
REMARK  156  A    between atoms: _376  and  _377
REMARK  157  A    between atoms: _380  and  _382
REMARK  158  A    between atoms: _382  and  _383
REMARK  159  A    between atoms: _382  and  _385
REMARK  160  A    between atoms: _385  and  _386
REMARK  161  A    between atoms: _386  and  _387
REMARK  162  A    between atoms: _387  and  _388
REMARK  163  A    between atoms: _388  and  _389
REMARK  164  A    between atoms: _393  and  _395
REMARK  165  A    between atoms: _395  and  _396
REMARK  166  A    between atoms: _395  and  _398
REMARK  167  A    between atoms: _398  and  _399
REMARK  168  A    between atoms: _399  and  _400
REMARK  169  A    between atoms: _402  and  _404
REMARK  170  A    between atoms: _404  and  _405
REMARK  171  A    between atoms: _404  and  _407
REMARK  172  A    between atoms: _407  and  _408
REMARK  173  A    between atoms: _411  and  _413
REMARK  174  A    between atoms: _413  and  _414
REMARK  175  A    between atoms: _416  and  _418
REMARK  176  A    between atoms: _418  and  _419
REMARK  177  A    between atoms: _421  and  _423
REMARK  178  A    between atoms: _423  and  _424
REMARK  179  A    between atoms: _423  and  _426
REMARK  180  A    between atoms: _426  and  _427
REMARK  181  A    between atoms: _430  and  _432
REMARK  182  A    between atoms: _432  and  _433
REMARK  183  A    between atoms: _435  and  _437
REMARK  184  A    between atoms: _437  and  _438
REMARK  185  A    between atoms: _440  and  _442
REMARK  186  A    between atoms: _442  and  _443
REMARK  187  A    between atoms: _442  and  _445
REMARK  188  A    between atoms: _445  and  _446
REMARK  189  A    between atoms: _452  and  _454
REMARK  190  A    between atoms: _454  and  _455
REMARK  191  A    between atoms: _454  and  _457
REMARK  192  A    between atoms: _457  and  _458
REMARK  193  A    between atoms: _461  and  _463
REMARK  194  A    between atoms: _463  and  _464
REMARK  195  A    between atoms: _463  and  _466
REMARK  196  A    between atoms: _469  and  _471
REMARK  197  A    between atoms: _471  and  _472
REMARK  198  A    between atoms: _471  and  _474
REMARK  199  A    between atoms: _474  and  _475
REMARK  200  A    between atoms: _479  and  _480
REMARK  201  A    between atoms: _485  and  _487
REMARK  202  A    between atoms: _487  and  _488
REMARK  203  A    between atoms: _487  and  _490
REMARK  204  A    between atoms: _490  and  _491
REMARK  205  A    between atoms: _495  and  _496
REMARK  206  A    between atoms: _501  and  _503
REMARK  207  A    between atoms: _503  and  _504
REMARK  208  A    between atoms: _503  and  _506
REMARK  209  A    between atoms: _509  and  _511
REMARK  210  A    between atoms: _511  and  _512
REMARK  211  A    between atoms: _511  and  _514
REMARK  212  A    between atoms: _514  and  _515
REMARK  213  A    between atoms: _520  and  _522
REMARK  214  A    between atoms: _522  and  _523
REMARK  215  A    between atoms: _522  and  _525
REMARK  216  A    between atoms: _525  and  _526
REMARK  217  A    between atoms: _529  and  _531
REMARK  218  A    between atoms: _531  and  _532
REMARK  219  A    between atoms: _531  and  _534
REMARK  220  A    between atoms: _534  and  _535
REMARK  221  A    between atoms: _538  and  _540
REMARK  222  A    between atoms: _540  and  _541
REMARK  223  A    between atoms: _543  and  _545
REMARK  224  A    between atoms: _545  and  _546
REMARK  225  A    between atoms: _545  and  _548
REMARK  226  A    between atoms: _548  and  _549
REMARK  227  A    between atoms: _549  and  _550
REMARK  228  A    between atoms: _550  and  _551
REMARK  229  A    between atoms: _560  and  _562
REMARK  230  A    between atoms: _562  and  _563
REMARK  231  A    between atoms: _562  and  _565
REMARK  232  A    between atoms: _565  and  _566
REMARK                            x       y       z     vdW  Elec       q    Type
REMARK                         _______ _______ _______ _____ _____    ______ ____
ROOT
ATOM      1  CA  VAL A   1      32.281  -2.146  26.165  0.00  0.00    +0.133 C 
ENDROOT
BRANCH   1   2
ATOM      2  CB  VAL A   1      31.665  -1.420  24.939  0.00  0.00    +0.023 C 
ATOM      3  CG2 VAL A   1      31.211  -0.005  25.282  0.00  0.00    +0.002 C 
ATOM      4  CG1 VAL A   1      30.469  -2.185  24.346  0.00  0.00    +0.002 C 
ENDBRANCH   1   2
BRANCH   1   5
ATOM      5  N   VAL A   1      31.353  -2.361  27.278  0.00  0.00    -0.239 NA
ATOM      6  H   VAL A   1      31.179  -1.566  27.926  0.00  0.00    +0.142 HD
ENDBRANCH   1   5
BRANCH   1   7
ATOM      7  C   VAL A   1      33.523  -1.386  26.645  0.00  0.00    +0.224 C 
ATOM      8  O   VAL A   1      33.538  -0.823  27.732  0.00  0.00    -0.287 OA
ENDBRANCH   1   7
TORSDOF 3
REMARK  Name = ../refined-set-2016/1kzk/1kzk_pocket.pdb
REMARK  232 active torsions:
REMARK  status: ('A' for Active; 'I' for Inactive)
REMARK    1  A    between atoms: _1  and  _3
REMARK    2  A    between atoms: _3  and  _4
REMARK    3  A    between atoms: _3  and  _6
REMARK    4  A    between atoms: _6  and  _7
REMARK    5  A    between atoms: _7  and  _8
REMARK    6  A    between atoms: _8  and  _9
REMARK    7  A    between atoms: _18  and  _20
REMARK    8  A    between atoms: _20  and  _21
REMARK    9  A    between atoms: _20  and  _23
REMARK   10  A    between atoms: _23  and  _24
REMARK   11  A    between atoms: _27  and  _29
REMARK   12  A    between atoms: _29  and  _30
REMARK   13  A    between atoms: _29  and  _32
REMARK   14  A    between atoms: _32  and  _33
REMARK   15  A    between atoms: _36  and  _38
REMARK   16  A    between atoms: _38  and  _39
REMARK   17  A    between atoms: _38  and  _41
REMARK   18  A    between atoms: _41  and  _42
REMARK   19  A    between atoms: _45  and  _47
REMARK   20  A    between atoms: _47  and  _48
REMARK   21  A    between atoms: _47  and  _50
REMARK   22  A    between atoms: _50  and  _51
REMARK   23  A    between atoms: _54  and  _56
REMARK   24  A    between atoms: _56  and  _57
REMARK   25  A    between atoms: _59  and  _61
REMARK   26  A    between atoms: _61  and  _62
REMARK   27  A    between atoms: _65  and  _67
REMARK   28  A    between atoms: _67  and  _68
REMARK   29  A    between atoms: _67  and  _70
REMARK   30  A    between atoms: _70  and  _71
REMARK   31  A    between atoms: _74  and  _76
REMARK   32  A    between atoms: _76  and  _77
REMARK   33  A    between atoms: _76  and  _79
REMARK   34  A    between atoms: _79  and  _80
REMARK   35  A    between atoms: _83  and  _85
REMARK   36  A    between atoms: _85  and  _86
REMARK   37  A    between atoms: _85  and  _88
REMARK   38  A    between atoms: _88  and  _89
REMARK   39  A    between atoms: _92  and  _94
REMARK   40  A    between atoms: _94  and  _95
REMARK   41  A    between atoms: _94  and  _97
REMARK   42  A    between atoms: _100  and  _102
REMARK   43  A    between atoms: _102  and  _103
REMARK   44  A    between atoms: _102  and  _105
REMARK   45  A    between atoms: _106  and  _107
REMARK   46  A    between atoms: _107  and  _108
REMARK   47  A    between atoms: _108  and  _109
REMARK   48  A    between atoms: _113  and  _115
REMARK   49  A    between atoms: _115  and  _116
REMARK   50  A    between atoms: _115  and  _118
REMARK   51  A    between atoms: _118  and  _119
REMARK   52  A    between atoms: _119  and  _120
REMARK   53  A    between atoms: _122  and  _124
REMARK   54  A    between atoms: _124  and  _125
REMARK   55  A    between atoms: _124  and  _127
REMARK   56  A    between atoms: _127  and  _128
REMARK   57  A    between atoms: _131  and  _133
REMARK   58  A    between atoms: _133  and  _134
REMARK   59  A    between atoms: _136  and  _138
REMARK   60  A    between atoms: _138  and  _139
REMARK   61  A    between atoms: _141  and  _143
REMARK   62  A    between atoms: _143  and  _144
REMARK   63  A    between atoms: _143  and  _146
REMARK   64  A    between atoms: _146  and  _147
REMARK   65  A    between atoms: _150  and  _152
REMARK   66  A    between atoms: _152  and  _153
REMARK   67  A    between atoms: _155  and  _157
REMARK   68  A    between atoms: _157  and  _158
REMARK   69  A    between atoms: _160  and  _162
REMARK   70  A    between atoms: _162  and  _163
REMARK   71  A    between atoms: _162  and  _165
REMARK   72  A    between atoms: _165  and  _166
REMARK   73  A    between atoms: _169  and  _171
REMARK   74  A    between atoms: _171  and  _172
REMARK   75  A    between atoms: _171  and  _174
REMARK   76  A    between atoms: _177  and  _179
REMARK   77  A    between atoms: _179  and  _180
REMARK   78  A    between atoms: _179  and  _182
REMARK   79  A    between atoms: _182  and  _183
REMARK   80  A    between atoms: _186  and  _188
REMARK   81  A    between atoms: _188  and  _189
REMARK   82  A    between atoms: _188  and  _191
REMARK   83  A    between atoms: _191  and  _192
REMARK   84  A    between atoms: _196  and  _197
REMARK   85  A    between atoms: _202  and  _204
REMARK   86  A    between atoms: _204  and  _205
REMARK   87  A    between atoms: _204  and  _207
REMARK   88  A    between atoms: _210  and  _212
REMARK   89  A    between atoms: _212  and  _213
REMARK   90  A    between atoms: _212  and  _215
REMARK   91  A    between atoms: _215  and  _216
REMARK   92  A    between atoms: _221  and  _223
REMARK   93  A    between atoms: _223  and  _224
REMARK   94  A    between atoms: _223  and  _226
REMARK   95  A    between atoms: _226  and  _227
REMARK   96  A    between atoms: _230  and  _232
REMARK   97  A    between atoms: _232  and  _233
REMARK   98  A    between atoms: _232  and  _235
REMARK   99  A    between atoms: _235  and  _236
REMARK  100  A    between atoms: _239  and  _241
REMARK  101  A    between atoms: _241  and  _242
REMARK  102  A    between atoms: _244  and  _246
REMARK  103  A    between atoms: _246  and  _247
REMARK  104  A    between atoms: _246  and  _249
REMARK  105  A    between atoms: _249  and  _250
REMARK  106  A    between atoms: _250  and  _251
REMARK  107  A    between atoms: _251  and  _252
REMARK  108  A    between atoms: _261  and  _263
REMARK  109  A    between atoms: _263  and  _264
REMARK  110  A    between atoms: _263  and  _266
REMARK  111  A    between atoms: _266  and  _267
REMARK  112  A    between atoms: _272  and  _274
REMARK  113  A    between atoms: _274  and  _275
REMARK  114  A    between atoms: _274  and  _277
REMARK  115  A    between atoms: _277  and  _278
REMARK  116  A    between atoms: _278  and  _279
REMARK  117  A    between atoms: _279  and  _280
REMARK  118  A    between atoms: _289  and  _291
REMARK  119  A    between atoms: _291  and  _292
REMARK  120  A    between atoms: _291  and  _294
REMARK  121  A    between atoms: _294  and  _295
REMARK  122  A    between atoms: _298  and  _300
REMARK  123  A    between atoms: _300  and  _301
REMARK  124  A    between atoms: _300  and  _303
REMARK  125  A    between atoms: _303  and  _304
REMARK  126  A    between atoms: _307  and  _309
REMARK  127  A    between atoms: _309  and  _310
REMARK  128  A    between atoms: _309  and  _312
REMARK  129  A    between atoms: _312  and  _313
REMARK  130  A    between atoms: _316  and  _318
REMARK  131  A    between atoms: _318  and  _319
REMARK  132  A    between atoms: _318  and  _321
REMARK  133  A    between atoms: _321  and  _322
REMARK  134  A    between atoms: _325  and  _327
REMARK  135  A    between atoms: _327  and  _328
REMARK  136  A    between atoms: _330  and  _332
REMARK  137  A    between atoms: _332  and  _333
REMARK  138  A    between atoms: _336  and  _338
REMARK  139  A    between atoms: _338  and  _339
REMARK  140  A    between atoms: _338  and  _341
REMARK  141  A    between atoms: _341  and  _342
REMARK  142  A    between atoms: _345  and  _347
REMARK  143  A    between atoms: _347  and  _348
REMARK  144  A    between atoms: _347  and  _350
REMARK  145  A    between atoms: _350  and  _351
REMARK  146  A    between atoms: _354  and  _356
REMARK  147  A    between atoms: _356  and  _357
REMARK  148  A    between atoms: _356  and  _359
REMARK  149  A    between atoms: _359  and  _360
REMARK  150  A    between atoms: _363  and  _365
REMARK  151  A    between atoms: _365  and  _366
REMARK  152  A    between atoms: _365  and  _368
REMARK  153  A    between atoms: _371  and  _373
REMARK  154  A    between atoms: _373  and  _374
REMARK  155  A    between atoms: _373  and  _376
REMARK  156  A    between atoms: _376  and  _377
REMARK  157  A    between atoms: _380  and  _382
REMARK  158  A    between atoms: _382  and  _383
REMARK  159  A    between atoms: _382  and  _385
REMARK  160  A    between atoms: _385  and  _386
REMARK  161  A    between atoms: _386  and  _387
REMARK  162  A    between atoms: _387  and  _388
REMARK  163  A    between atoms: _388  and  _389
REMARK  164  A    between atoms: _393  and  _395
REMARK  165  A    between atoms: _395  and  _396
REMARK  166  A    between atoms: _395  and  _398
REMARK  167  A    between atoms: _398  and  _399
REMARK  168  A    between atoms: _399  and  _400
REMARK  169  A    between atoms: _402  and  _404
REMARK  170  A    between atoms: _404  and  _405
REMARK  171  A    between atoms: _404  and  _407
REMARK  172  A    between atoms: _407  and  _408
REMARK  173  A    between atoms: _411  and  _413
REMARK  174  A    between atoms: _413  and  _414
REMARK  175  A    between atoms: _416  and  _418
REMARK  176  A    between atoms: _418  and  _419
REMARK  177  A    between atoms: _421  and  _423
REMARK  178  A    between atoms: _423  and  _424
REMARK  179  A    between atoms: _423  and  _426
REMARK  180  A    between atoms: _426  and  _427
REMARK  181  A    between atoms: _430  and  _432
REMARK  182  A    between atoms: _432  and  _433
REMARK  183  A    between atoms: _435  and  _437
REMARK  184  A    between atoms: _437  and  _438
REMARK  185  A    between atoms: _440  and  _442
REMARK  186  A    between atoms: _442  and  _443
REMARK  187  A    between atoms: _442  and  _445
REMARK  188  A    between atoms: _445  and  _446
REMARK  189  A    between atoms: _452  and  _454
REMARK  190  A    between atoms: _454  and  _455
REMARK  191  A    between atoms: _454  and  _457
REMARK  192  A    between atoms: _457  and  _458
REMARK  193  A    between atoms: _461  and  _463
REMARK  194  A    between atoms: _463  and  _464
REMARK  195  A    between atoms: _463  and  _466
REMARK  196  A    between atoms: _469  and  _471
REMARK  197  A    between atoms: _471  and  _472
REMARK  198  A    between atoms: _471  and  _474
REMARK  199  A    between atoms: _474  and  _475
REMARK  200  A    between atoms: _479  and  _480
REMARK  201  A    between atoms: _485  and  _487
REMARK  202  A    between atoms: _487  and  _488
REMARK  203  A    between atoms: _487  and  _490
REMARK  204  A    between atoms: _490  and  _491
REMARK  205  A    between atoms: _495  and  _496
REMARK  206  A    between atoms: _501  and  _503
REMARK  207  A    between atoms: _503  and  _504
REMARK  208  A    between atoms: _503  and  _506
REMARK  209  A    between atoms: _509  and  _511
REMARK  210  A    between atoms: _511  and  _512
REMARK  211  A    between atoms: _511  and  _514
REMARK  212  A    between atoms: _514  and  _515
REMARK  213  A    between atoms: _520  and  _522
REMARK  214  A    between atoms: _522  and  _523
REMARK  215  A    between atoms: _522  and  _525
REMARK  216  A    between atoms: _525  and  _526
REMARK  217  A    between atoms: _529  and  _531
REMARK  218  A    between atoms: _531  and  _532
REMARK  219  A    between atoms: _531  and  _534
REMARK  220  A    between atoms: _534  and  _535
REMARK  221  A    between atoms: _538  and  _540
REMARK  222  A    between atoms: _540  and  _541
REMARK  223  A    between atoms: _543  and  _545
REMARK  224  A    between atoms: _545  and  _546
REMARK  225  A    between atoms: _545  and  _548
REMARK  226  A    between atoms: _548  and  _549
REMARK  227  A    between atoms: _549  and  _550
REMARK  228  A    between atoms: _550  and  _551
REMARK  229  A    between atoms: _560  and  _562
REMARK  230  A    between atoms: _562  and  _563
REMARK  231  A    between atoms: _562  and  _565
REMARK  232  A    between atoms: _565  and  _566
REMARK                            x       y       z     vdW  Elec       q    Type
REMARK                         _______ _______ _______ _____ _____    ______ ____
ROOT
ATOM      1  CA  LEU A   1      33.805   0.968  21.236  0.00  0.00    +0.133 C 
ENDROOT
BRANCH   1   2
ATOM      2  N   LEU A   1      34.119   1.889  20.138  0.00  0.00    -0.239 NA
ATOM      3  H   LEU A   1      33.394   2.033  19.406  0.00  0.00    +0.142 HD
ENDBRANCH   1   2
BRANCH   1   4
ATOM      4  C   LEU A   1      34.097  -0.458  20.811  0.00  0.00    +0.224 C 
ATOM      5  O   LEU A   1      33.880  -0.780  19.641  0.00  0.00    -0.287 OA
ENDBRANCH   1   4
BRANCH   1   6
ATOM      6  CB  LEU A   1      32.333   1.157  21.677  0.00  0.00    +0.025 C 
BRANCH   6   7
ATOM      7  CG  LEU A   1      31.855   2.594  21.905  0.00  0.00    +0.002 C 
ATOM      8  CD2 LEU A   1      32.724   3.303  22.931  0.00  0.00    +0.000 C 
ATOM      9  CD1 LEU A   1      30.399   2.601  22.347  0.00  0.00    +0.000 C 
ENDBRANCH   6   7
ENDBRANCH   1   6
TORSDOF 4
REMARK  Name = ../refined-set-2016/1kzk/1kzk_pocket.pdb
REMARK  232 active torsions:
REMARK  status: ('A' for Active; 'I' for Inactive)
REMARK    1  A    between atoms: _1  and  _3
REMARK    2  A    between atoms: _3  and  _4
REMARK    3  A    between atoms: _3  and  _6
REMARK    4  A    between atoms: _6  and  _7
REMARK    5  A    between atoms: _7  and  _8
REMARK    6  A    between atoms: _8  and  _9
REMARK    7  A    between atoms: _18  and  _20
REMARK    8  A    between atoms: _20  and  _21
REMARK    9  A    between atoms: _20  and  _23
REMARK   10  A    between atoms: _23  and  _24
REMARK   11  A    between atoms: _27  and  _29
REMARK   12  A    between atoms: _29  and  _30
REMARK   13  A    between atoms: _29  and  _32
REMARK   14  A    between atoms: _32  and  _33
REMARK   15  A    between atoms: _36  and  _38
REMARK   16  A    between atoms: _38  and  _39
REMARK   17  A    between atoms: _38  and  _41
REMARK   18  A    between atoms: _41  and  _42
REMARK   19  A    between atoms: _45  and  _47
REMARK   20  A    between atoms: _47  and  _48
REMARK   21  A    between atoms: _47  and  _50
REMARK   22  A    between atoms: _50  and  _51
REMARK   23  A    between atoms: _54  and  _56
REMARK   24  A    between atoms: _56  and  _57
REMARK   25  A    between atoms: _59  and  _61
REMARK   26  A    between atoms: _61  and  _62
REMARK   27  A    between atoms: _65  and  _67
REMARK   28  A    between atoms: _67  and  _68
REMARK   29  A    between atoms: _67  and  _70
REMARK   30  A    between atoms: _70  and  _71
REMARK   31  A    between atoms: _74  and  _76
REMARK   32  A    between atoms: _76  and  _77
REMARK   33  A    between atoms: _76  and  _79
REMARK   34  A    between atoms: _79  and  _80
REMARK   35  A    between atoms: _83  and  _85
REMARK   36  A    between atoms: _85  and  _86
REMARK   37  A    between atoms: _85  and  _88
REMARK   38  A    between atoms: _88  and  _89
REMARK   39  A    between atoms: _92  and  _94
REMARK   40  A    between atoms: _94  and  _95
REMARK   41  A    between atoms: _94  and  _97
REMARK   42  A    between atoms: _100  and  _102
REMARK   43  A    between atoms: _102  and  _103
REMARK   44  A    between atoms: _102  and  _105
REMARK   45  A    between atoms: _106  and  _107
REMARK   46  A    between atoms: _107  and  _108
REMARK   47  A    between atoms: _108  and  _109
REMARK   48  A    between atoms: _113  and  _115
REMARK   49  A    between atoms: _115  and  _116
REMARK   50  A    between atoms: _115  and  _118
REMARK   51  A    between atoms: _118  and  _119
REMARK   52  A    between atoms: _119  and  _120
REMARK   53  A    between atoms: _122  and  _124
REMARK   54  A    between atoms: _124  and  _125
REMARK   55  A    between atoms: _124  and  _127
REMARK   56  A    between atoms: _127  and  _128
REMARK   57  A    between atoms: _131  and  _133
REMARK   58  A    between atoms: _133  and  _134
REMARK   59  A    between atoms: _136  and  _138
REMARK   60  A    between atoms: _138  and  _139
REMARK   61  A    between atoms: _141  and  _143
REMARK   62  A    between atoms: _143  and  _144
REMARK   63  A    between atoms: _143  and  _146
REMARK   64  A    between atoms: _146  and  _147
REMARK   65  A    between atoms: _150  and  _152
REMARK   66  A    between atoms: _152  and  _153
REMARK   67  A    between atoms: _155  and  _157
REMARK   68  A    between atoms: _157  and  _158
REMARK   69  A    between atoms: _160  and  _162
REMARK   70  A    between atoms: _162  and  _163
REMARK   71  A    between atoms: _162  and  _165
REMARK   72  A    between atoms: _165  and  _166
REMARK   73  A    between atoms: _169  and  _171
REMARK   74  A    between atoms: _171  and  _172
REMARK   75  A    between atoms: _171  and  _174
REMARK   76  A    between atoms: _177  and  _179
REMARK   77  A    between atoms: _179  and  _180
REMARK   78  A    between atoms: _179  and  _182
REMARK   79  A    between atoms: _182  and  _183
REMARK   80  A    between atoms: _186  and  _188
REMARK   81  A    between atoms: _188  and  _189
REMARK   82  A    between atoms: _188  and  _191
REMARK   83  A    between atoms: _191  and  _192
REMARK   84  A    between atoms: _196  and  _197
REMARK   85  A    between atoms: _202  and  _204
REMARK   86  A    between atoms: _204  and  _205
REMARK   87  A    between atoms: _204  and  _207
REMARK   88  A    between atoms: _210  and  _212
REMARK   89  A    between atoms: _212  and  _213
REMARK   90  A    between atoms: _212  and  _215
REMARK   91  A    between atoms: _215  and  _216
REMARK   92  A    between atoms: _221  and  _223
REMARK   93  A    between atoms: _223  and  _224
REMARK   94  A    between atoms: _223  and  _226
REMARK   95  A    between atoms: _226  and  _227
REMARK   96  A    between atoms: _230  and  _232
REMARK   97  A    between atoms: _232  and  _233
REMARK   98  A    between atoms: _232  and  _235
REMARK   99  A    between atoms: _235  and  _236
REMARK  100  A    between atoms: _239  and  _241
REMARK  101  A    between atoms: _241  and  _242
REMARK  102  A    between atoms: _244  and  _246
REMARK  103  A    between atoms: _246  and  _247
REMARK  104  A    between atoms: _246  and  _249
REMARK  105  A    between atoms: _249  and  _250
REMARK  106  A    between atoms: _250  and  _251
REMARK  107  A    between atoms: _251  and  _252
REMARK  108  A    between atoms: _261  and  _263
REMARK  109  A    between atoms: _263  and  _264
REMARK  110  A    between atoms: _263  and  _266
REMARK  111  A    between atoms: _266  and  _267
REMARK  112  A    between atoms: _272  and  _274
REMARK  113  A    between atoms: _274  and  _275
REMARK  114  A    between atoms: _274  and  _277
REMARK  115  A    between atoms: _277  and  _278
REMARK  116  A    between atoms: _278  and  _279
REMARK  117  A    between atoms: _279  and  _280
REMARK  118  A    between atoms: _289  and  _291
REMARK  119  A    between atoms: _291  and  _292
REMARK  120  A    between atoms: _291  and  _294
REMARK  121  A    between atoms: _294  and  _295
REMARK  122  A    between atoms: _298  and  _300
REMARK  123  A    between atoms: _300  and  _301
REMARK  124  A    between atoms: _300  and  _303
REMARK  125  A    between atoms: _303  and  _304
REMARK  126  A    between atoms: _307  and  _309
REMARK  127  A    between atoms: _309  and  _310
REMARK  128  A    between atoms: _309  and  _312
REMARK  129  A    between atoms: _312  and  _313
REMARK  130  A    between atoms: _316  and  _318
REMARK  131  A    between atoms: _318  and  _319
REMARK  132  A    between atoms: _318  and  _321
REMARK  133  A    between atoms: _321  and  _322
REMARK  134  A    between atoms: _325  and  _327
REMARK  135  A    between atoms: _327  and  _328
REMARK  136  A    between atoms: _330  and  _332
REMARK  137  A    between atoms: _332  and  _333
REMARK  138  A    between atoms: _336  and  _338
REMARK  139  A    between atoms: _338  and  _339
REMARK  140  A    between atoms: _338  and  _341
REMARK  141  A    between atoms: _341  and  _342
REMARK  142  A    between atoms: _345  and  _347
REMARK  143  A    between atoms: _347  and  _348
REMARK  144  A    between atoms: _347  and  _350
REMARK  145  A    between atoms: _350  and  _351
REMARK  146  A    between atoms: _354  and  _356
REMARK  147  A    between atoms: _356  and  _357
REMARK  148  A    between atoms: _356  and  _359
REMARK  149  A    between atoms: _359  and  _360
REMARK  150  A    between atoms: _363  and  _365
REMARK  151  A    between atoms: _365  and  _366
REMARK  152  A    between atoms: _365  and  _368
REMARK  153  A    between atoms: _371  and  _373
REMARK  154  A    between atoms: _373  and  _374
REMARK  155  A    between atoms: _373  and  _376
REMARK  156  A    between atoms: _376  and  _377
REMARK  157  A    between atoms: _380  and  _382
REMARK  158  A    between atoms: _382  and  _383
REMARK  159  A    between atoms: _382  and  _385
REMARK  160  A    between atoms: _385  and  _386
REMARK  161  A    between atoms: _386  and  _387
REMARK  162  A    between atoms: _387  and  _388
REMARK  163  A    between atoms: _388  and  _389
REMARK  164  A    between atoms: _393  and  _395
REMARK  165  A    between atoms: _395  and  _396
REMARK  166  A    between atoms: _395  and  _398
REMARK  167  A    between atoms: _398  and  _399
REMARK  168  A    between atoms: _399  and  _400
REMARK  169  A    between atoms: _402  and  _404
REMARK  170  A    between atoms: _404  and  _405
REMARK  171  A    between atoms: _404  and  _407
REMARK  172  A    between atoms: _407  and  _408
REMARK  173  A    between atoms: _411  and  _413
REMARK  174  A    between atoms: _413  and  _414
REMARK  175  A    between atoms: _416  and  _418
REMARK  176  A    between atoms: _418  and  _419
REMARK  177  A    between atoms: _421  and  _423
REMARK  178  A    between atoms: _423  and  _424
REMARK  179  A    between atoms: _423  and  _426
REMARK  180  A    between atoms: _426  and  _427
REMARK  181  A    between atoms: _430  and  _432
REMARK  182  A    between atoms: _432  and  _433
REMARK  183  A    between atoms: _435  and  _437
REMARK  184  A    between atoms: _437  and  _438
REMARK  185  A    between atoms: _440  and  _442
REMARK  186  A    between atoms: _442  and  _443
REMARK  187  A    between atoms: _442  and  _445
REMARK  188  A    between atoms: _445  and  _446
REMARK  189  A    between atoms: _452  and  _454
REMARK  190  A    between atoms: _454  and  _455
REMARK  191  A    between atoms: _454  and  _457
REMARK  192  A    between atoms: _457  and  _458
REMARK  193  A    between atoms: _461  and  _463
REMARK  194  A    between atoms: _463  and  _464
REMARK  195  A    between atoms: _463  and  _466
REMARK  196  A    between atoms: _469  and  _471
REMARK  197  A    between atoms: _471  and  _472
REMARK  198  A    between atoms: _471  and  _474
REMARK  199  A    between atoms: _474  and  _475
REMARK  200  A    between atoms: _479  and  _480
REMARK  201  A    between atoms: _485  and  _487
REMARK  202  A    between atoms: _487  and  _488
REMARK  203  A    between atoms: _487  and  _490
REMARK  204  A    between atoms: _490  and  _491
REMARK  205  A    between atoms: _495  and  _496
REMARK  206  A    between atoms: _501  and  _503
REMARK  207  A    between atoms: _503  and  _504
REMARK  208  A    between atoms: _503  and  _506
REMARK  209  A    between atoms: _509  and  _511
REMARK  210  A    between atoms: _511  and  _512
REMARK  211  A    between atoms: _511  and  _514
REMARK  212  A    between atoms: _514  and  _515
REMARK  213  A    between atoms: _520  and  _522
REMARK  214  A    between atoms: _522  and  _523
REMARK  215  A    between atoms: _522  and  _525
REMARK  216  A    between atoms: _525  and  _526
REMARK  217  A    between atoms: _529  and  _531
REMARK  218  A    between atoms: _531  and  _532
REMARK  219  A    between atoms: _531  and  _534
REMARK  220  A    between atoms: _534  and  _535
REMARK  221  A    between atoms: _538  and  _540
REMARK  222  A    between atoms: _540  and  _541
REMARK  223  A    between atoms: _543  and  _545
REMARK  224  A    between atoms: _545  and  _546
REMARK  225  A    between atoms: _545  and  _548
REMARK  226  A    between atoms: _548  and  _549
REMARK  227  A    between atoms: _549  and  _550
REMARK  228  A    between atoms: _550  and  _551
REMARK  229  A    between atoms: _560  and  _562
REMARK  230  A    between atoms: _562  and  _563
REMARK  231  A    between atoms: _562  and  _565
REMARK  232  A    between atoms: _565  and  _566
REMARK                            x       y       z     vdW  Elec       q    Type
REMARK                         _______ _______ _______ _____ _____    ______ ____
ROOT
ATOM      1  C   ILE A   5      29.500  -0.043  13.281  0.00  0.00    +0.241 C 
ATOM      2  O   ILE A   5      30.231   0.356  14.193  0.00  0.00    -0.273 OA
ATOM      3  N   ILE A   6      29.298   0.685  12.141  0.00  0.00    -0.297 N 
ATOM      4  H   ILE A   6      28.851   0.207  11.333  0.00  0.00    +0.150 HD
ENDROOT
BRANCH   3   5
ATOM      5  CA  ILE A   6      29.673   2.107  11.981  0.00  0.00    +0.149 C 
BRANCH   5   6
ATOM      6  C   ILE A   6      28.417   2.922  12.291  0.00  0.00    +0.241 C 
ATOM      7  N   GLY A   7      28.473   3.666  13.402  0.00  0.00    -0.295 N 
ATOM      8  H   GLY A   7      29.348   3.664  13.964  0.00  0.00    +0.150 HD
ATOM      9  O   ILE A   6      27.425   2.860  11.581  0.00  0.00    -0.273 OA
BRANCH   7  10
ATOM     10  CA  GLY A   7      27.351   4.477  13.850  0.00  0.00    +0.176 C 
BRANCH  10  11
ATOM     11  C   GLY A   7      27.484   5.948  13.493  0.00  0.00    +0.243 C 
ATOM     12  N   ARG A   8      26.501   6.741  13.964  0.00  0.00    -0.297 N 
ATOM     13  H   ARG A   8      25.815   6.349  14.641  0.00  0.00    +0.150 HD
ATOM     14  O   GLY A   7      28.432   6.397  12.815  0.00  0.00    -0.273 OA
BRANCH  12  15
ATOM     15  CA  ARG A   8      26.374   8.129  13.551  0.00  0.00    +0.149 C 
BRANCH  15  16
ATOM     16  C   ARG A   8      27.595   8.994  13.857  0.00  0.00    +0.241 C 
ATOM     17  N   ASN A   9      28.320   8.707  14.924  0.00  0.00    -0.298 N 
ATOM     18  H   ASN A   9      28.051   7.910  15.536  0.00  0.00    +0.150 HD
ATOM     19  O   ARG A   8      27.856   9.952  13.090  0.00  0.00    -0.273 OA
BRANCH  17  20
ATOM     20  CA  ASN A   9      29.518   9.520  15.250  0.00  0.00    +0.146 C 
BRANCH  20  21
ATOM     21  C   ASN A   9      30.526   9.554  14.093  0.00  0.00    +0.227 C 
ATOM     22  O   ASN A   9      31.153  10.591  13.872  0.00  0.00    -0.286 OA
ENDBRANCH  20  21
BRANCH  20  23
ATOM     23  CB  ASN A   9      30.171   9.039  16.546  0.00  0.00    +0.112 C 
BRANCH  23  24
ATOM     24  CG  ASN A   9      30.929   7.723  16.438  0.00  0.00    +0.222 C 
ATOM     25  ND2 ASN A   9      32.187   7.736  16.893  0.00  0.00    -0.329 N 
ATOM     26 HD21 ASN A   9      32.594   8.615  17.271  0.00  0.00    +0.145 HD
ATOM     27 HD22 ASN A   9      32.758   6.867  16.869  0.00  0.00    +0.145 HD
ATOM     28  OD1 ASN A   9      30.347   6.715  15.963  0.00  0.00    -0.275 OA
ENDBRANCH  23  24
ENDBRANCH  20  23
ENDBRANCH  17  20
ENDBRANCH  15  16
BRANCH  15  29
ATOM     29  CB  ARG A   8      25.109   8.777  14.130  0.00  0.00    +0.033 C 
BRANCH  29  30
ATOM     30  CG  ARG A   8      23.772   8.148  13.693  0.00  0.00    +0.045 C 
BRANCH  30  31
ATOM     31  CD  ARG A   8      22.559   8.973  14.074  0.00  0.00    +0.174 C 
BRANCH  31  32
ATOM     32  NE  ARG A   8      22.409   8.981  15.527  0.00  0.00    -0.265 N 
ATOM     33  CZ  ARG A   8      22.778   9.926  16.386  0.00  0.00    +0.342 C 
ATOM     34  NH2 ARG A   8      22.618   9.776  17.710  0.00  0.00    -0.292 N 
ATOM     35 HH21 ARG A   8      22.916  10.532  18.359  0.00  0.00    +0.255 HD
ATOM     36 HH22 ARG A   8      22.196   8.904  18.087  0.00  0.00    +0.255 HD
ATOM     37  NH1 ARG A   8      23.327  11.092  15.976  0.00  0.00    -0.292 N 
ATOM     38 HH11 ARG A   8      23.605  11.810  16.675  0.00  0.00    +0.255 HD
ATOM     39 HH12 ARG A   8      23.472  11.270  14.962  0.00  0.00    +0.255 HD
ATOM     40  HE  ARG A   8      21.956   8.141  15.942  0.00  0.00    +0.259 HD
ENDBRANCH  31  32
ENDBRANCH  30  31
ENDBRANCH  29  30
ENDBRANCH  15  29
ENDBRANCH  12  15
ENDBRANCH  10  11
ENDBRANCH   7  10
ENDBRANCH   5   6
BRANCH   5  41
ATOM     41  CB  ILE A   6      30.201   2.397  10.581  0.00  0.00    +0.027 C 
ATOM     42  CG2 ILE A   6      30.596   3.856  10.447  0.00  0.00    +0.002 C 
BRANCH  41  43
ATOM     43  CG1 ILE A   6      31.348   1.442  10.121  0.00  0.00    +0.002 C 
ATOM     44  CD1 ILE A   6      32.550   1.415  11.029  0.00  0.00    +0.000 C 
ENDBRANCH  41  43
ENDBRANCH   5  41
ENDBRANCH   3   5
BRANCH   1  45
ATOM     45  CA  ILE A   5      28.793  -1.395  13.394  0.00  0.00    +0.149 C 
BRANCH  45  47
ATOM     46  C   ASN A   4      29.956  -3.523  12.836  0.00  0.00    +0.241 C 
ATOM     47  N   ILE A   5      29.748  -2.489  13.638  0.00  0.00    -0.297 N 
ATOM     48  H   ILE A   5      30.307  -2.446  14.514  0.00  0.00    +0.150 HD
ATOM     49  O   ASN A   4      29.413  -3.687  11.721  0.00  0.00    -0.273 OA
BRANCH  46  50
ATOM     50  CA  ASN A   4      30.927  -4.603  13.315  0.00  0.00    +0.158 C 
BRANCH  50  53
ATOM     51  C   VAL A   3      29.230  -6.156  14.156  0.00  0.00    +0.241 C 
ATOM     52  O   VAL A   3      28.911  -5.351  15.043  0.00  0.00    -0.273 OA
ATOM     53  N   ASN A   4      30.258  -5.925  13.331  0.00  0.00    -0.297 N 
ATOM     54  H   ASN A   4      30.590  -6.679  12.696  0.00  0.00    +0.150 HD
BRANCH  51  55
ATOM     55  CA  VAL A   3      28.409  -7.408  13.931  0.00  0.00    +0.149 C 
BRANCH  55  57
ATOM     56  C   PRO A   2      27.388  -8.982  15.530  0.00  0.00    +0.241 C 
ATOM     57  N   VAL A   3      27.717  -7.728  15.167  0.00  0.00    -0.297 N 
ATOM     58  H   VAL A   3      27.462  -6.947  15.805  0.00  0.00    +0.150 HD
ATOM     59  O   PRO A   2      27.622 -10.025  14.861  0.00  0.00    -0.273 OA
BRANCH  56  66
ATOM     60  C   THR A   1      28.073  -7.876  18.408  0.00  0.00    +0.244 C 
ATOM     61  O   THR A   1      29.020  -8.643  18.147  0.00  0.00    -0.273 OA
ATOM     62  N   PRO A   2      26.872  -8.067  17.853  0.00  0.00    -0.272 N 
ATOM     63  CD  PRO A   2      25.615  -7.375  18.197  0.00  0.00    +0.094 C 
ATOM     64  CG  PRO A   2      24.690  -7.727  17.064  0.00  0.00    +0.024 C 
ATOM     65  CB  PRO A   2      25.100  -9.096  16.629  0.00  0.00    +0.031 C 
ATOM     66  CA  PRO A   2      26.630  -9.121  16.863  0.00  0.00    +0.152 C 
BRANCH  60  67
ATOM     67  CA  THR A   1      28.340  -6.746  19.392  0.00  0.00    +0.172 C 
BRANCH  67  68
ATOM     68  N   THR A   1      29.287  -7.071  20.457  0.00  0.00    -0.236 NA
ATOM     69  H   THR A   1      30.252  -6.687  20.400  0.00  0.00    +0.142 HD
ENDBRANCH  67  68
BRANCH  67  70
ATOM     70  CB  THR A   1      28.802  -5.487  18.648  0.00  0.00    +0.135 C 
ATOM     71  CG2 THR A   1      30.195  -5.635  18.010  0.00  0.00    +0.034 C 
BRANCH  70  72
ATOM     72  OG1 THR A   1      27.841  -5.177  17.621  0.00  0.00    -0.383 OA
ATOM     73  HG1 THR A   1      27.778  -5.937  16.989  0.00  0.00    +0.210 HD
ENDBRANCH  70  72
ENDBRANCH  67  70
ENDBRANCH  60  67
ENDBRANCH  56  66
ENDBRANCH  55  57
BRANCH  55  74
ATOM     74  CB  VAL A   3      27.469  -7.161  12.737  0.00  0.00    +0.027 C 
ATOM     75  CG2 VAL A   3      26.585  -5.959  12.980  0.00  0.00    +0.002 C 
ATOM     76  CG1 VAL A   3      26.570  -8.343  12.415  0.00  0.00    +0.002 C 
ENDBRANCH  55  74
ENDBRANCH  51  55
ENDBRANCH  50  53
BRANCH  50  77
ATOM     77  CB  ASN A   4      32.171  -4.607  12.414  0.00  0.00    +0.114 C 
BRANCH  77  78
ATOM     78  CG  ASN A   4      33.298  -5.534  12.848  0.00  0.00    +0.222 C 
ATOM     79  OD1 ASN A   4      33.603  -5.664  14.068  0.00  0.00    -0.275 OA
ATOM     80  ND2 ASN A   4      33.982  -6.181  11.909  0.00  0.00    -0.329 N 
ATOM     81 HD21 ASN A   4      34.774  -6.799  12.176  0.00  0.00    +0.145 HD
ATOM     82 HD22 ASN A   4      33.725  -6.069  10.908  0.00  0.00    +0.145 HD
ENDBRANCH  77  78
ENDBRANCH  50  77
ENDBRANCH  46  50
ENDBRANCH  45  47
BRANCH  45  83
ATOM     83  CB  ILE A   5      27.796  -1.281  14.593  0.00  0.00    +0.027 C 
ATOM     84  CG2 ILE A   5      27.002   0.016  14.530  0.00  0.00    +0.002 C 
BRANCH  83  85
ATOM     85  CG1 ILE A   5      26.904  -2.528  14.713  0.00  0.00    +0.002 C 
ATOM     86  CD1 ILE A   5      26.102  -2.543  15.991  0.00  0.00    +0.000 C 
ENDBRANCH  83  85
ENDBRANCH  45  83
ENDBRANCH   1  45
TORSDOF 32
REMARK  Name = ../refined-set-2016/1kzk/1kzk_pocket.pdb
REMARK  232 active torsions:
REMARK  status: ('A' for Active; 'I' for Inactive)
REMARK    1  A    between atoms: _1  and  _3
REMARK    2  A    between atoms: _3  and  _4
REMARK    3  A    between atoms: _3  and  _6
REMARK    4  A    between atoms: _6  and  _7
REMARK    5  A    between atoms: _7  and  _8
REMARK    6  A    between atoms: _8  and  _9
REMARK    7  A    between atoms: _18  and  _20
REMARK    8  A    between atoms: _20  and  _21
REMARK    9  A    between atoms: _20  and  _23
REMARK   10  A    between atoms: _23  and  _24
REMARK   11  A    between atoms: _27  and  _29
REMARK   12  A    between atoms: _29  and  _30
REMARK   13  A    between atoms: _29  and  _32
REMARK   14  A    between atoms: _32  and  _33
REMARK   15  A    between atoms: _36  and  _38
REMARK   16  A    between atoms: _38  and  _39
REMARK   17  A    between atoms: _38  and  _41
REMARK   18  A    between atoms: _41  and  _42
REMARK   19  A    between atoms: _45  and  _47
REMARK   20  A    between atoms: _47  and  _48
REMARK   21  A    between atoms: _47  and  _50
REMARK   22  A    between atoms: _50  and  _51
REMARK   23  A    between atoms: _54  and  _56
REMARK   24  A    between atoms: _56  and  _57
REMARK   25  A    between atoms: _59  and  _61
REMARK   26  A    between atoms: _61  and  _62
REMARK   27  A    between atoms: _65  and  _67
REMARK   28  A    between atoms: _67  and  _68
REMARK   29  A    between atoms: _67  and  _70
REMARK   30  A    between atoms: _70  and  _71
REMARK   31  A    between atoms: _74  and  _76
REMARK   32  A    between atoms: _76  and  _77
REMARK   33  A    between atoms: _76  and  _79
REMARK   34  A    between atoms: _79  and  _80
REMARK   35  A    between atoms: _83  and  _85
REMARK   36  A    between atoms: _85  and  _86
REMARK   37  A    between atoms: _85  and  _88
REMARK   38  A    between atoms: _88  and  _89
REMARK   39  A    between atoms: _92  and  _94
REMARK   40  A    between atoms: _94  and  _95
REMARK   41  A    between atoms: _94  and  _97
REMARK   42  A    between atoms: _100  and  _102
REMARK   43  A    between atoms: _102  and  _103
REMARK   44  A    between atoms: _102  and  _105
REMARK   45  A    between atoms: _106  and  _107
REMARK   46  A    between atoms: _107  and  _108
REMARK   47  A    between atoms: _108  and  _109
REMARK   48  A    between atoms: _113  and  _115
REMARK   49  A    between atoms: _115  and  _116
REMARK   50  A    between atoms: _115  and  _118
REMARK   51  A    between atoms: _118  and  _119
REMARK   52  A    between atoms: _119  and  _120
REMARK   53  A    between atoms: _122  and  _124
REMARK   54  A    between atoms: _124  and  _125
REMARK   55  A    between atoms: _124  and  _127
REMARK   56  A    between atoms: _127  and  _128
REMARK   57  A    between atoms: _131  and  _133
REMARK   58  A    between atoms: _133  and  _134
REMARK   59  A    between atoms: _136  and  _138
REMARK   60  A    between atoms: _138  and  _139
REMARK   61  A    between atoms: _141  and  _143
REMARK   62  A    between atoms: _143  and  _144
REMARK   63  A    between atoms: _143  and  _146
REMARK   64  A    between atoms: _146  and  _147
REMARK   65  A    between atoms: _150  and  _152
REMARK   66  A    between atoms: _152  and  _153
REMARK   67  A    between atoms: _155  and  _157
REMARK   68  A    between atoms: _157  and  _158
REMARK   69  A    between atoms: _160  and  _162
REMARK   70  A    between atoms: _162  and  _163
REMARK   71  A    between atoms: _162  and  _165
REMARK   72  A    between atoms: _165  and  _166
REMARK   73  A    between atoms: _169  and  _171
REMARK   74  A    between atoms: _171  and  _172
REMARK   75  A    between atoms: _171  and  _174
REMARK   76  A    between atoms: _177  and  _179
REMARK   77  A    between atoms: _179  and  _180
REMARK   78  A    between atoms: _179  and  _182
REMARK   79  A    between atoms: _182  and  _183
REMARK   80  A    between atoms: _186  and  _188
REMARK   81  A    between atoms: _188  and  _189
REMARK   82  A    between atoms: _188  and  _191
REMARK   83  A    between atoms: _191  and  _192
REMARK   84  A    between atoms: _196  and  _197
REMARK   85  A    between atoms: _202  and  _204
REMARK   86  A    between atoms: _204  and  _205
REMARK   87  A    between atoms: _204  and  _207
REMARK   88  A    between atoms: _210  and  _212
REMARK   89  A    between atoms: _212  and  _213
REMARK   90  A    between atoms: _212  and  _215
REMARK   91  A    between atoms: _215  and  _216
REMARK   92  A    between atoms: _221  and  _223
REMARK   93  A    between atoms: _223  and  _224
REMARK   94  A    between atoms: _223  and  _226
REMARK   95  A    between atoms: _226  and  _227
REMARK   96  A    between atoms: _230  and  _232
REMARK   97  A    between atoms: _232  and  _233
REMARK   98  A    between atoms: _232  and  _235
REMARK   99  A    between atoms: _235  and  _236
REMARK  100  A    between atoms: _239  and  _241
REMARK  101  A    between atoms: _241  and  _242
REMARK  102  A    between atoms: _244  and  _246
REMARK  103  A    between atoms: _246  and  _247
REMARK  104  A    between atoms: _246  and  _249
REMARK  105  A    between atoms: _249  and  _250
REMARK  106  A    between atoms: _250  and  _251
REMARK  107  A    between atoms: _251  and  _252
REMARK  108  A    between atoms: _261  and  _263
REMARK  109  A    between atoms: _263  and  _264
REMARK  110  A    between atoms: _263  and  _266
REMARK  111  A    between atoms: _266  and  _267
REMARK  112  A    between atoms: _272  and  _274
REMARK  113  A    between atoms: _274  and  _275
REMARK  114  A    between atoms: _274  and  _277
REMARK  115  A    between atoms: _277  and  _278
REMARK  116  A    between atoms: _278  and  _279
REMARK  117  A    between atoms: _279  and  _280
REMARK  118  A    between atoms: _289  and  _291
REMARK  119  A    between atoms: _291  and  _292
REMARK  120  A    between atoms: _291  and  _294
REMARK  121  A    between atoms: _294  and  _295
REMARK  122  A    between atoms: _298  and  _300
REMARK  123  A    between atoms: _300  and  _301
REMARK  124  A    between atoms: _300  and  _303
REMARK  125  A    between atoms: _303  and  _304
REMARK  126  A    between atoms: _307  and  _309
REMARK  127  A    between atoms: _309  and  _310
REMARK  128  A    between atoms: _309  and  _312
REMARK  129  A    between atoms: _312  and  _313
REMARK  130  A    between atoms: _316  and  _318
REMARK  131  A    between atoms: _318  and  _319
REMARK  132  A    between atoms: _318  and  _321
REMARK  133  A    between atoms: _321  and  _322
REMARK  134  A    between atoms: _325  and  _327
REMARK  135  A    between atoms: _327  and  _328
REMARK  136  A    between atoms: _330  and  _332
REMARK  137  A    between atoms: _332  and  _333
REMARK  138  A    between atoms: _336  and  _338
REMARK  139  A    between atoms: _338  and  _339
REMARK  140  A    between atoms: _338  and  _341
REMARK  141  A    between atoms: _341  and  _342
REMARK  142  A    between atoms: _345  and  _347
REMARK  143  A    between atoms: _347  and  _348
REMARK  144  A    between atoms: _347  and  _350
REMARK  145  A    between atoms: _350  and  _351
REMARK  146  A    between atoms: _354  and  _356
REMARK  147  A    between atoms: _356  and  _357
REMARK  148  A    between atoms: _356  and  _359
REMARK  149  A    between atoms: _359  and  _360
REMARK  150  A    between atoms: _363  and  _365
REMARK  151  A    between atoms: _365  and  _366
REMARK  152  A    between atoms: _365  and  _368
REMARK  153  A    between atoms: _371  and  _373
REMARK  154  A    between atoms: _373  and  _374
REMARK  155  A    between atoms: _373  and  _376
REMARK  156  A    between atoms: _376  and  _377
REMARK  157  A    between atoms: _380  and  _382
REMARK  158  A    between atoms: _382  and  _383
REMARK  159  A    between atoms: _382  and  _385
REMARK  160  A    between atoms: _385  and  _386
REMARK  161  A    between atoms: _386  and  _387
REMARK  162  A    between atoms: _387  and  _388
REMARK  163  A    between atoms: _388  and  _389
REMARK  164  A    between atoms: _393  and  _395
REMARK  165  A    between atoms: _395  and  _396
REMARK  166  A    between atoms: _395  and  _398
REMARK  167  A    between atoms: _398  and  _399
REMARK  168  A    between atoms: _399  and  _400
REMARK  169  A    between atoms: _402  and  _404
REMARK  170  A    between atoms: _404  and  _405
REMARK  171  A    between atoms: _404  and  _407
REMARK  172  A    between atoms: _407  and  _408
REMARK  173  A    between atoms: _411  and  _413
REMARK  174  A    between atoms: _413  and  _414
REMARK  175  A    between atoms: _416  and  _418
REMARK  176  A    between atoms: _418  and  _419
REMARK  177  A    between atoms: _421  and  _423
REMARK  178  A    between atoms: _423  and  _424
REMARK  179  A    between atoms: _423  and  _426
REMARK  180  A    between atoms: _426  and  _427
REMARK  181  A    between atoms: _430  and  _432
REMARK  182  A    between atoms: _432  and  _433
REMARK  183  A    between atoms: _435  and  _437
REMARK  184  A    between atoms: _437  and  _438
REMARK  185  A    between atoms: _440  and  _442
REMARK  186  A    between atoms: _442  and  _443
REMARK  187  A    between atoms: _442  and  _445
REMARK  188  A    between atoms: _445  and  _446
REMARK  189  A    between atoms: _452  and  _454
REMARK  190  A    between atoms: _454  and  _455
REMARK  191  A    between atoms: _454  and  _457
REMARK  192  A    between atoms: _457  and  _458
REMARK  193  A    between atoms: _461  and  _463
REMARK  194  A    between atoms: _463  and  _464
REMARK  195  A    between atoms: _463  and  _466
REMARK  196  A    between atoms: _469  and  _471
REMARK  197  A    between atoms: _471  and  _472
REMARK  198  A    between atoms: _471  and  _474
REMARK  199  A    between atoms: _474  and  _475
REMARK  200  A    between atoms: _479  and  _480
REMARK  201  A    between atoms: _485  and  _487
REMARK  202  A    between atoms: _487  and  _488
REMARK  203  A    between atoms: _487  and  _490
REMARK  204  A    between atoms: _490  and  _491
REMARK  205  A    between atoms: _495  and  _496
REMARK  206  A    between atoms: _501  and  _503
REMARK  207  A    between atoms: _503  and  _504
REMARK  208  A    between atoms: _503  and  _506
REMARK  209  A    between atoms: _509  and  _511
REMARK  210  A    between atoms: _511  and  _512
REMARK  211  A    between atoms: _511  and  _514
REMARK  212  A    between atoms: _514  and  _515
REMARK  213  A    between atoms: _520  and  _522
REMARK  214  A    between atoms: _522  and  _523
REMARK  215  A    between atoms: _522  and  _525
REMARK  216  A    between atoms: _525  and  _526
REMARK  217  A    between atoms: _529  and  _531
REMARK  218  A    between atoms: _531  and  _532
REMARK  219  A    between atoms: _531  and  _534
REMARK  220  A    between atoms: _534  and  _535
REMARK  221  A    between atoms: _538  and  _540
REMARK  222  A    between atoms: _540  and  _541
REMARK  223  A    between atoms: _543  and  _545
REMARK  224  A    between atoms: _545  and  _546
REMARK  225  A    between atoms: _545  and  _548
REMARK  226  A    between atoms: _548  and  _549
REMARK  227  A    between atoms: _549  and  _550
REMARK  228  A    between atoms: _550  and  _551
REMARK  229  A    between atoms: _560  and  _562
REMARK  230  A    between atoms: _562  and  _563
REMARK  231  A    between atoms: _562  and  _565
REMARK  232  A    between atoms: _565  and  _566
REMARK                            x       y       z     vdW  Elec       q    Type
REMARK                         _______ _______ _______ _____ _____    ______ ____
ROOT
ATOM      1  NE  ARG A   1      19.091   7.596  19.930  0.00  0.00    -0.265 N 
ATOM      2  CZ  ARG A   1      18.756   6.702  20.853  0.00  0.00    +0.342 C 
ATOM      3  NH2 ARG A   1      19.647   6.105  21.647  0.00  0.00    -0.292 N 
ATOM      4 HH21 ARG A   1      19.331   5.411  22.354  0.00  0.00    +0.255 HD
ATOM      5 HH22 ARG A   1      20.658   6.333  21.559  0.00  0.00    +0.255 HD
ATOM      6  NH1 ARG A   1      17.471   6.409  20.956  0.00  0.00    -0.292 N 
ATOM      7 HH11 ARG A   1      17.151   5.715  21.662  0.00  0.00    +0.255 HD
ATOM      8 HH12 ARG A   1      16.780   6.872  20.331  0.00  0.00    +0.255 HD
ATOM      9  HE  ARG A   1      20.103   7.821  19.852  0.00  0.00    +0.259 HD
ENDROOT
BRANCH   1  10
ATOM     10  CD  ARG A   1      18.180   8.315  18.992  0.00  0.00    +0.174 C 
BRANCH  10  11
ATOM     11  CG  ARG A   1      18.985   9.204  18.005  0.00  0.00    +0.045 C 
BRANCH  11  12
ATOM     12  CB  ARG A   1      18.123   9.776  16.862  0.00  0.00    +0.029 C 
BRANCH  12  13
ATOM     13  CA  ARG A   1      18.891  10.449  15.733  0.00  0.00    +0.133 C 
BRANCH  13  14
ATOM     14  N   ARG A   1      19.615  11.660  16.229  0.00  0.00    -0.239 NA
ATOM     15  H   ARG A   1      19.587  11.921  17.235  0.00  0.00    +0.142 HD
ENDBRANCH  13  14
BRANCH  13  16
ATOM     16  C   ARG A   1      17.877  10.820  14.639  0.00  0.00    +0.224 C 
ATOM     17  O   ARG A   1      17.139  11.819  14.802  0.00  0.00    -0.287 OA
ENDBRANCH  13  16
ENDBRANCH  12  13
ENDBRANCH  11  12
ENDBRANCH  10  11
ENDBRANCH   1  10
TORSDOF 6
REMARK  Name = ../refined-set-2016/1kzk/1kzk_pocket.pdb
REMARK  232 active torsions:
REMARK  status: ('A' for Active; 'I' for Inactive)
REMARK    1  A    between atoms: _1  and  _3
REMARK    2  A    between atoms: _3  and  _4
REMARK    3  A    between atoms: _3  and  _6
REMARK    4  A    between atoms: _6  and  _7
REMARK    5  A    between atoms: _7  and  _8
REMARK    6  A    between atoms: _8  and  _9
REMARK    7  A    between atoms: _18  and  _20
REMARK    8  A    between atoms: _20  and  _21
REMARK    9  A    between atoms: _20  and  _23
REMARK   10  A    between atoms: _23  and  _24
REMARK   11  A    between atoms: _27  and  _29
REMARK   12  A    between atoms: _29  and  _30
REMARK   13  A    between atoms: _29  and  _32
REMARK   14  A    between atoms: _32  and  _33
REMARK   15  A    between atoms: _36  and  _38
REMARK   16  A    between atoms: _38  and  _39
REMARK   17  A    between atoms: _38  and  _41
REMARK   18  A    between atoms: _41  and  _42
REMARK   19  A    between atoms: _45  and  _47
REMARK   20  A    between atoms: _47  and  _48
REMARK   21  A    between atoms: _47  and  _50
REMARK   22  A    between atoms: _50  and  _51
REMARK   23  A    between atoms: _54  and  _56
REMARK   24  A    between atoms: _56  and  _57
REMARK   25  A    between atoms: _59  and  _61
REMARK   26  A    between atoms: _61  and  _62
REMARK   27  A    between atoms: _65  and  _67
REMARK   28  A    between atoms: _67  and  _68
REMARK   29  A    between atoms: _67  and  _70
REMARK   30  A    between atoms: _70  and  _71
REMARK   31  A    between atoms: _74  and  _76
REMARK   32  A    between atoms: _76  and  _77
REMARK   33  A    between atoms: _76  and  _79
REMARK   34  A    between atoms: _79  and  _80
REMARK   35  A    between atoms: _83  and  _85
REMARK   36  A    between atoms: _85  and  _86
REMARK   37  A    between atoms: _85  and  _88
REMARK   38  A    between atoms: _88  and  _89
REMARK   39  A    between atoms: _92  and  _94
REMARK   40  A    between atoms: _94  and  _95
REMARK   41  A    between atoms: _94  and  _97
REMARK   42  A    between atoms: _100  and  _102
REMARK   43  A    between atoms: _102  and  _103
REMARK   44  A    between atoms: _102  and  _105
REMARK   45  A    between atoms: _106  and  _107
REMARK   46  A    between atoms: _107  and  _108
REMARK   47  A    between atoms: _108  and  _109
REMARK   48  A    between atoms: _113  and  _115
REMARK   49  A    between atoms: _115  and  _116
REMARK   50  A    between atoms: _115  and  _118
REMARK   51  A    between atoms: _118  and  _119
REMARK   52  A    between atoms: _119  and  _120
REMARK   53  A    between atoms: _122  and  _124
REMARK   54  A    between atoms: _124  and  _125
REMARK   55  A    between atoms: _124  and  _127
REMARK   56  A    between atoms: _127  and  _128
REMARK   57  A    between atoms: _131  and  _133
REMARK   58  A    between atoms: _133  and  _134
REMARK   59  A    between atoms: _136  and  _138
REMARK   60  A    between atoms: _138  and  _139
REMARK   61  A    between atoms: _141  and  _143
REMARK   62  A    between atoms: _143  and  _144
REMARK   63  A    between atoms: _143  and  _146
REMARK   64  A    between atoms: _146  and  _147
REMARK   65  A    between atoms: _150  and  _152
REMARK   66  A    between atoms: _152  and  _153
REMARK   67  A    between atoms: _155  and  _157
REMARK   68  A    between atoms: _157  and  _158
REMARK   69  A    between atoms: _160  and  _162
REMARK   70  A    between atoms: _162  and  _163
REMARK   71  A    between atoms: _162  and  _165
REMARK   72  A    between atoms: _165  and  _166
REMARK   73  A    between atoms: _169  and  _171
REMARK   74  A    between atoms: _171  and  _172
REMARK   75  A    between atoms: _171  and  _174
REMARK   76  A    between atoms: _177  and  _179
REMARK   77  A    between atoms: _179  and  _180
REMARK   78  A    between atoms: _179  and  _182
REMARK   79  A    between atoms: _182  and  _183
REMARK   80  A    between atoms: _186  and  _188
REMARK   81  A    between atoms: _188  and  _189
REMARK   82  A    between atoms: _188  and  _191
REMARK   83  A    between atoms: _191  and  _192
REMARK   84  A    between atoms: _196  and  _197
REMARK   85  A    between atoms: _202  and  _204
REMARK   86  A    between atoms: _204  and  _205
REMARK   87  A    between atoms: _204  and  _207
REMARK   88  A    between atoms: _210  and  _212
REMARK   89  A    between atoms: _212  and  _213
REMARK   90  A    between atoms: _212  and  _215
REMARK   91  A    between atoms: _215  and  _216
REMARK   92  A    between atoms: _221  and  _223
REMARK   93  A    between atoms: _223  and  _224
REMARK   94  A    between atoms: _223  and  _226
REMARK   95  A    between atoms: _226  and  _227
REMARK   96  A    between atoms: _230  and  _232
REMARK   97  A    between atoms: _232  and  _233
REMARK   98  A    between atoms: _232  and  _235
REMARK   99  A    between atoms: _235  and  _236
REMARK  100  A    between atoms: _239  and  _241
REMARK  101  A    between atoms: _241  and  _242
REMARK  102  A    between atoms: _244  and  _246
REMARK  103  A    between atoms: _246  and  _247
REMARK  104  A    between atoms: _246  and  _249
REMARK  105  A    between atoms: _249  and  _250
REMARK  106  A    between atoms: _250  and  _251
REMARK  107  A    between atoms: _251  and  _252
REMARK  108  A    between atoms: _261  and  _263
REMARK  109  A    between atoms: _263  and  _264
REMARK  110  A    between atoms: _263  and  _266
REMARK  111  A    between atoms: _266  and  _267
REMARK  112  A    between atoms: _272  and  _274
REMARK  113  A    between atoms: _274  and  _275
REMARK  114  A    between atoms: _274  and  _277
REMARK  115  A    between atoms: _277  and  _278
REMARK  116  A    between atoms: _278  and  _279
REMARK  117  A    between atoms: _279  and  _280
REMARK  118  A    between atoms: _289  and  _291
REMARK  119  A    between atoms: _291  and  _292
REMARK  120  A    between atoms: _291  and  _294
REMARK  121  A    between atoms: _294  and  _295
REMARK  122  A    between atoms: _298  and  _300
REMARK  123  A    between atoms: _300  and  _301
REMARK  124  A    between atoms: _300  and  _303
REMARK  125  A    between atoms: _303  and  _304
REMARK  126  A    between atoms: _307  and  _309
REMARK  127  A    between atoms: _309  and  _310
REMARK  128  A    between atoms: _309  and  _312
REMARK  129  A    between atoms: _312  and  _313
REMARK  130  A    between atoms: _316  and  _318
REMARK  131  A    between atoms: _318  and  _319
REMARK  132  A    between atoms: _318  and  _321
REMARK  133  A    between atoms: _321  and  _322
REMARK  134  A    between atoms: _325  and  _327
REMARK  135  A    between atoms: _327  and  _328
REMARK  136  A    between atoms: _330  and  _332
REMARK  137  A    between atoms: _332  and  _333
REMARK  138  A    between atoms: _336  and  _338
REMARK  139  A    between atoms: _338  and  _339
REMARK  140  A    between atoms: _338  and  _341
REMARK  141  A    between atoms: _341  and  _342
REMARK  142  A    between atoms: _345  and  _347
REMARK  143  A    between atoms: _347  and  _348
REMARK  144  A    between atoms: _347  and  _350
REMARK  145  A    between atoms: _350  and  _351
REMARK  146  A    between atoms: _354  and  _356
REMARK  147  A    between atoms: _356  and  _357
REMARK  148  A    between atoms: _356  and  _359
REMARK  149  A    between atoms: _359  and  _360
REMARK  150  A    between atoms: _363  and  _365
REMARK  151  A    between atoms: _365  and  _366
REMARK  152  A    between atoms: _365  and  _368
REMARK  153  A    between atoms: _371  and  _373
REMARK  154  A    between atoms: _373  and  _374
REMARK  155  A    between atoms: _373  and  _376
REMARK  156  A    between atoms: _376  and  _377
REMARK  157  A    between atoms: _380  and  _382
REMARK  158  A    between atoms: _382  and  _383
REMARK  159  A    between atoms: _382  and  _385
REMARK  160  A    between atoms: _385  and  _386
REMARK  161  A    between atoms: _386  and  _387
REMARK  162  A    between atoms: _387  and  _388
REMARK  163  A    between atoms: _388  and  _389
REMARK  164  A    between atoms: _393  and  _395
REMARK  165  A    between atoms: _395  and  _396
REMARK  166  A    between atoms: _395  and  _398
REMARK  167  A    between atoms: _398  and  _399
REMARK  168  A    between atoms: _399  and  _400
REMARK  169  A    between atoms: _402  and  _404
REMARK  170  A    between atoms: _404  and  _405
REMARK  171  A    between atoms: _404  and  _407
REMARK  172  A    between atoms: _407  and  _408
REMARK  173  A    between atoms: _411  and  _413
REMARK  174  A    between atoms: _413  and  _414
REMARK  175  A    between atoms: _416  and  _418
REMARK  176  A    between atoms: _418  and  _419
REMARK  177  A    between atoms: _421  and  _423
REMARK  178  A    between atoms: _423  and  _424
REMARK  179  A    between atoms: _423  and  _426
REMARK  180  A    between atoms: _426  and  _427
REMARK  181  A    between atoms: _430  and  _432
REMARK  182  A    between atoms: _432  and  _433
REMARK  183  A    between atoms: _435  and  _437
REMARK  184  A    between atoms: _437  and  _438
REMARK  185  A    between atoms: _440  and  _442
REMARK  186  A    between atoms: _442  and  _443
REMARK  187  A    between atoms: _442  and  _445
REMARK  188  A    between atoms: _445  and  _446
REMARK  189  A    between atoms: _452  and  _454
REMARK  190  A    between atoms: _454  and  _455
REMARK  191  A    between atoms: _454  and  _457
REMARK  192  A    between atoms: _457  and  _458
REMARK  193  A    between atoms: _461  and  _463
REMARK  194  A    between atoms: _463  and  _464
REMARK  195  A    between atoms: _463  and  _466
REMARK  196  A    between atoms: _469  and  _471
REMARK  197  A    between atoms: _471  and  _472
REMARK  198  A    between atoms: _471  and  _474
REMARK  199  A    between atoms: _474  and  _475
REMARK  200  A    between atoms: _479  and  _480
REMARK  201  A    between atoms: _485  and  _487
REMARK  202  A    between atoms: _487  and  _488
REMARK  203  A    between atoms: _487  and  _490
REMARK  204  A    between atoms: _490  and  _491
REMARK  205  A    between atoms: _495  and  _496
REMARK  206  A    between atoms: _501  and  _503
REMARK  207  A    between atoms: _503  and  _504
REMARK  208  A    between atoms: _503  and  _506
REMARK  209  A    between atoms: _509  and  _511
REMARK  210  A    between atoms: _511  and  _512
REMARK  211  A    between atoms: _511  and  _514
REMARK  212  A    between atoms: _514  and  _515
REMARK  213  A    between atoms: _520  and  _522
REMARK  214  A    between atoms: _522  and  _523
REMARK  215  A    between atoms: _522  and  _525
REMARK  216  A    between atoms: _525  and  _526
REMARK  217  A    between atoms: _529  and  _531
REMARK  218  A    between atoms: _531  and  _532
REMARK  219  A    between atoms: _531  and  _534
REMARK  220  A    between atoms: _534  and  _535
REMARK  221  A    between atoms: _538  and  _540
REMARK  222  A    between atoms: _540  and  _541
REMARK  223  A    between atoms: _543  and  _545
REMARK  224  A    between atoms: _545  and  _546
REMARK  225  A    between atoms: _545  and  _548
REMARK  226  A    between atoms: _548  and  _549
REMARK  227  A    between atoms: _549  and  _550
REMARK  228  A    between atoms: _550  and  _551
REMARK  229  A    between atoms: _560  and  _562
REMARK  230  A    between atoms: _562  and  _563
REMARK  231  A    between atoms: _562  and  _565
REMARK  232  A    between atoms: _565  and  _566
REMARK                            x       y       z     vdW  Elec       q    Type
REMARK                         _______ _______ _______ _____ _____    ______ ____
ROOT
ATOM      1  C   ALA A   6      17.030  -3.795   9.831  0.00  0.00    +0.241 C 
ATOM      2  N   ASP A   7      16.935  -5.115   9.800  0.00  0.00    -0.297 N 
ATOM      3  H   ASP A   7      17.239  -5.669  10.626  0.00  0.00    +0.150 HD
ATOM      4  O   ALA A   6      16.651  -3.104   8.854  0.00  0.00    -0.273 OA
ENDROOT
BRANCH   1   5
ATOM      5  CA  ALA A   6      17.545  -3.107  11.079  0.00  0.00    +0.149 C 
ATOM      6  CB  ALA A   6      16.415  -2.333  11.756  0.00  0.00    +0.031 C 
BRANCH   5   9
ATOM      7  C   GLY A   5      19.924  -2.534  10.835  0.00  0.00    +0.243 C 
ATOM      8  O   GLY A   5      20.291  -3.690  11.116  0.00  0.00    -0.273 OA
ATOM      9  N   ALA A   6      18.635  -2.178  10.750  0.00  0.00    -0.297 N 
ATOM     10  H   ALA A   6      18.398  -1.213  10.441  0.00  0.00    +0.150 HD
BRANCH   7  11
ATOM     11  CA  GLY A   5      20.980  -1.489  10.559  0.00  0.00    +0.176 C 
BRANCH  11  13
ATOM     12  C   THR A   4      20.241  -0.196   8.578  0.00  0.00    +0.243 C 
ATOM     13  N   GLY A   5      20.477  -0.264   9.900  0.00  0.00    -0.295 N 
ATOM     14  H   GLY A   5      20.299   0.579  10.483  0.00  0.00    +0.150 HD
ATOM     15  O   THR A   4      20.490  -1.132   7.807  0.00  0.00    -0.273 OA
BRANCH  12  16
ATOM     16  CA  THR A   4      19.612   1.065   8.039  0.00  0.00    +0.176 C 
BRANCH  16  19
ATOM     17  C   ASP A   3      17.906   1.586   9.746  0.00  0.00    +0.241 C 
ATOM     18  O   ASP A   3      17.323   0.508   9.520  0.00  0.00    -0.273 OA
ATOM     19  N   THR A   4      19.031   1.935   9.074  0.00  0.00    -0.295 N 
ATOM     20  H   THR A   4      19.494   2.839   9.295  0.00  0.00    +0.150 HD
BRANCH  17  21
ATOM     21  CA  ASP A   3      17.421   2.551  10.802  0.00  0.00    +0.160 C 
BRANCH  21  24
ATOM     22  C   LEU A   2      16.347   4.735  10.406  0.00  0.00    +0.241 C 
ATOM     23  O   LEU A   2      17.394   5.364  10.609  0.00  0.00    -0.273 OA
ATOM     24  N   ASP A   3      16.308   3.400  10.354  0.00  0.00    -0.297 N 
ATOM     25  H   ASP A   3      15.453   2.942   9.980  0.00  0.00    +0.150 HD
BRANCH  22  26
ATOM     26  CA  LEU A   2      15.038   5.499  10.233  0.00  0.00    +0.149 C 
BRANCH  26  29
ATOM     27  C   LEU A   1      14.097   5.347  12.483  0.00  0.00    +0.238 C 
ATOM     28  O   LEU A   1      13.761   4.168  12.292  0.00  0.00    -0.274 OA
ATOM     29  N   LEU A   2      14.667   6.100  11.542  0.00  0.00    -0.297 N 
ATOM     30  H   LEU A   2      14.852   7.107  11.723  0.00  0.00    +0.150 HD
BRANCH  27  31
ATOM     31  CA  LEU A   1      13.836   5.983  13.844  0.00  0.00    +0.145 C 
BRANCH  31  32
ATOM     32  N   LEU A   1      12.439   5.946  14.214  0.00  0.00    -0.238 NA
ATOM     33  H   LEU A   1      12.147   5.118  14.772  0.00  0.00    +0.142 HD
ENDBRANCH  31  32
BRANCH  31  34
ATOM     34  CB  LEU A   1      14.659   5.312  14.971  0.00  0.00    +0.026 C 
BRANCH  34  35
ATOM     35  CG  LEU A   1      16.172   5.328  14.830  0.00  0.00    +0.002 C 
ATOM     36  CD2 LEU A   1      16.804   4.392  15.879  0.00  0.00    +0.000 C 
ATOM     37  CD1 LEU A   1      16.734   6.697  15.006  0.00  0.00    +0.000 C 
ENDBRANCH  34  35
ENDBRANCH  31  34
ENDBRANCH  27  31
ENDBRANCH  26  29
BRANCH  26  38
ATOM     38  CB  LEU A   2      15.147   6.539   9.144  0.00  0.00    +0.029 C 
BRANCH  38  39
ATOM     39  CG  LEU A   2      13.873   7.338   8.864  0.00  0.00    +0.002 C 
ATOM     40  CD2 LEU A   2      12.653   6.499   8.610  0.00  0.00    +0.000 C 
ATOM     41  CD1 LEU A   2      14.148   8.286   7.661  0.00  0.00    +0.000 C 
ENDBRANCH  38  39
ENDBRANCH  26  38
ENDBRANCH  22  26
ENDBRANCH  21  24
BRANCH  21  42
ATOM     42  CB  ASP A   3      16.984   1.755  12.034  0.00  0.00    +0.143 C 
BRANCH  42  43
ATOM     43  CG  ASP A   3      18.026   0.872  12.650  0.00  0.00    +0.367 C 
ATOM     44  OD2 ASP A   3      17.684   0.168  13.671  0.00  0.00    -0.246 OA
ATOM     45  OD1 ASP A   3      19.153   0.872  12.142  0.00  0.00    -0.246 OA
ENDBRANCH  42  43
ENDBRANCH  21  42
ENDBRANCH  17  21
ENDBRANCH  16  19
BRANCH  16  46
ATOM     46  CB  THR A   4      20.693   1.801   7.212  0.00  0.00    +0.137 C 
ATOM     47  CG2 THR A   4      20.078   3.021   6.506  0.00  0.00    +0.034 C 
BRANCH  46  48
ATOM     48  OG1 THR A   4      21.734   2.272   8.010  0.00  0.00    -0.382 OA
ATOM     49  HG1 THR A   4      22.165   1.510   8.472  0.00  0.00    +0.210 HD
ENDBRANCH  46  48
ENDBRANCH  16  46
ENDBRANCH  12  16
ENDBRANCH  11  13
ENDBRANCH   7  11
ENDBRANCH   5   9
ENDBRANCH   1   5
BRANCH   2  50
ATOM     50  CA  ASP A   7      16.412  -5.805   8.628  0.00  0.00    +0.160 C 
BRANCH  50  51
ATOM     51  C   ASP A   7      14.920  -5.555   8.476  0.00  0.00    +0.241 C 
ATOM     52  N   ASP A   8      14.211  -5.399   9.602  0.00  0.00    -0.297 N 
ATOM     53  H   ASP A   8      14.735  -5.302  10.495  0.00  0.00    +0.150 HD
ATOM     54  O   ASP A   7      14.401  -5.536   7.330  0.00  0.00    -0.273 OA
BRANCH  52  55
ATOM     55  CA  ASP A   8      12.733  -5.356   9.661  0.00  0.00    +0.160 C 
BRANCH  55  56
ATOM     56  C   ASP A   8      12.316  -4.146  10.527  0.00  0.00    +0.241 C 
ATOM     57  O   ASP A   8      13.179  -3.393  10.983  0.00  0.00    -0.273 OA
ATOM     58  N   THR A   9      11.024  -3.969  10.744  0.00  0.00    -0.295 N 
ATOM     59  H   THR A   9      10.382  -4.715  10.408  0.00  0.00    +0.150 HD
BRANCH  58  60
ATOM     60  CA  THR A   9      10.409  -2.806  11.421  0.00  0.00    +0.176 C 
BRANCH  60  61
ATOM     61  C   THR A   9       9.819  -3.272  12.744  0.00  0.00    +0.243 C 
ATOM     62  N   VAL A  10      10.173  -2.609  13.868  0.00  0.00    -0.297 N 
ATOM     63  H   VAL A  10      10.847  -1.819  13.808  0.00  0.00    +0.150 HD
ATOM     64  O   THR A   9       9.025  -4.250  12.760  0.00  0.00    -0.273 OA
BRANCH  62  65
ATOM     65  CA  VAL A  10       9.615  -2.992  15.176  0.00  0.00    +0.149 C 
BRANCH  65  66
ATOM     66  C   VAL A  10       9.090  -1.768  15.906  0.00  0.00    +0.241 C 
ATOM     67  N   LEU A  11       7.842  -1.828  16.379  0.00  0.00    -0.298 N 
ATOM     68  H   LEU A  11       7.329  -2.724  16.251  0.00  0.00    +0.150 HD
ATOM     69  O   VAL A  10       9.818  -0.761  16.001  0.00  0.00    -0.273 OA
BRANCH  67  70
ATOM     70  CA  LEU A  11       7.152  -0.773  17.043  0.00  0.00    +0.137 C 
BRANCH  70  71
ATOM     71  C   LEU A  11       7.018  -1.050  18.535  0.00  0.00    +0.227 C 
ATOM     72  O   LEU A  11       6.821  -2.204  18.938  0.00  0.00    -0.286 OA
ENDBRANCH  70  71
BRANCH  70  73
ATOM     73  CB  LEU A  11       5.771  -0.569  16.409  0.00  0.00    +0.028 C 
BRANCH  73  74
ATOM     74  CG  LEU A  11       5.728  -0.256  14.907  0.00  0.00    +0.002 C 
ATOM     75  CD2 LEU A  11       6.573   0.972  14.526  0.00  0.00    +0.000 C 
ATOM     76  CD1 LEU A  11       4.268  -0.069  14.522  0.00  0.00    +0.000 C 
ENDBRANCH  73  74
ENDBRANCH  70  73
ENDBRANCH  67  70
ENDBRANCH  65  66
BRANCH  65  77
ATOM     77  CB  VAL A  10      10.605  -3.795  16.055  0.00  0.00    +0.027 C 
ATOM     78  CG2 VAL A  10       9.933  -4.287  17.346  0.00  0.00    +0.002 C 
ATOM     79  CG1 VAL A  10      11.868  -2.995  16.386  0.00  0.00    +0.002 C 
ENDBRANCH  65  77
ENDBRANCH  62  65
ENDBRANCH  60  61
BRANCH  60  80
ATOM     80  CB  THR A   9       9.370  -2.202  10.471  0.00  0.00    +0.137 C 
ATOM     81  CG2 THR A   9       8.475  -1.155  11.108  0.00  0.00    +0.034 C 
BRANCH  80  82
ATOM     82  OG1 THR A   9      10.047  -1.575   9.340  0.00  0.00    -0.382 OA
ATOM     83  HG1 THR A   9      10.579  -2.256   8.857  0.00  0.00    +0.210 HD
ENDBRANCH  80  82
ENDBRANCH  60  80
ENDBRANCH  58  60
ENDBRANCH  55  56
BRANCH  55  84
ATOM     84  CB  ASP A   8      12.152  -6.693  10.128  0.00  0.00    +0.143 C 
BRANCH  84  85
ATOM     85  CG  ASP A   8      11.958  -7.652   8.940  0.00  0.00    +0.367 C 
ATOM     86  OD2 ASP A   8      12.620  -8.699   8.918  0.00  0.00    -0.246 OA
ATOM     87  OD1 ASP A   8      11.134  -7.302   8.012  0.00  0.00    -0.246 OA
ENDBRANCH  84  85
ENDBRANCH  55  84
ENDBRANCH  52  55
ENDBRANCH  50  51
BRANCH  50  88
ATOM     88  CB  ASP A   7      16.633  -7.327   8.764  0.00  0.00    +0.143 C 
BRANCH  88  89
ATOM     89  CG  ASP A   7      18.107  -7.731   8.823  0.00  0.00    +0.367 C 
ATOM     90  OD2 ASP A   7      18.346  -8.830   9.388  0.00  0.00    -0.246 OA
ATOM     91  OD1 ASP A   7      19.034  -7.056   8.368  0.00  0.00    -0.246 OA
ENDBRANCH  88  89
ENDBRANCH  50  88
ENDBRANCH   2  50
TORSDOF 39
REMARK  Name = ../refined-set-2016/1kzk/1kzk_pocket.pdb
REMARK  232 active torsions:
REMARK  status: ('A' for Active; 'I' for Inactive)
REMARK    1  A    between atoms: _1  and  _3
REMARK    2  A    between atoms: _3  and  _4
REMARK    3  A    between atoms: _3  and  _6
REMARK    4  A    between atoms: _6  and  _7
REMARK    5  A    between atoms: _7  and  _8
REMARK    6  A    between atoms: _8  and  _9
REMARK    7  A    between atoms: _18  and  _20
REMARK    8  A    between atoms: _20  and  _21
REMARK    9  A    between atoms: _20  and  _23
REMARK   10  A    between atoms: _23  and  _24
REMARK   11  A    between atoms: _27  and  _29
REMARK   12  A    between atoms: _29  and  _30
REMARK   13  A    between atoms: _29  and  _32
REMARK   14  A    between atoms: _32  and  _33
REMARK   15  A    between atoms: _36  and  _38
REMARK   16  A    between atoms: _38  and  _39
REMARK   17  A    between atoms: _38  and  _41
REMARK   18  A    between atoms: _41  and  _42
REMARK   19  A    between atoms: _45  and  _47
REMARK   20  A    between atoms: _47  and  _48
REMARK   21  A    between atoms: _47  and  _50
REMARK   22  A    between atoms: _50  and  _51
REMARK   23  A    between atoms: _54  and  _56
REMARK   24  A    between atoms: _56  and  _57
REMARK   25  A    between atoms: _59  and  _61
REMARK   26  A    between atoms: _61  and  _62
REMARK   27  A    between atoms: _65  and  _67
REMARK   28  A    between atoms: _67  and  _68
REMARK   29  A    between atoms: _67  and  _70
REMARK   30  A    between atoms: _70  and  _71
REMARK   31  A    between atoms: _74  and  _76
REMARK   32  A    between atoms: _76  and  _77
REMARK   33  A    between atoms: _76  and  _79
REMARK   34  A    between atoms: _79  and  _80
REMARK   35  A    between atoms: _83  and  _85
REMARK   36  A    between atoms: _85  and  _86
REMARK   37  A    between atoms: _85  and  _88
REMARK   38  A    between atoms: _88  and  _89
REMARK   39  A    between atoms: _92  and  _94
REMARK   40  A    between atoms: _94  and  _95
REMARK   41  A    between atoms: _94  and  _97
REMARK   42  A    between atoms: _100  and  _102
REMARK   43  A    between atoms: _102  and  _103
REMARK   44  A    between atoms: _102  and  _105
REMARK   45  A    between atoms: _106  and  _107
REMARK   46  A    between atoms: _107  and  _108
REMARK   47  A    between atoms: _108  and  _109
REMARK   48  A    between atoms: _113  and  _115
REMARK   49  A    between atoms: _115  and  _116
REMARK   50  A    between atoms: _115  and  _118
REMARK   51  A    between atoms: _118  and  _119
REMARK   52  A    between atoms: _119  and  _120
REMARK   53  A    between atoms: _122  and  _124
REMARK   54  A    between atoms: _124  and  _125
REMARK   55  A    between atoms: _124  and  _127
REMARK   56  A    between atoms: _127  and  _128
REMARK   57  A    between atoms: _131  and  _133
REMARK   58  A    between atoms: _133  and  _134
REMARK   59  A    between atoms: _136  and  _138
REMARK   60  A    between atoms: _138  and  _139
REMARK   61  A    between atoms: _141  and  _143
REMARK   62  A    between atoms: _143  and  _144
REMARK   63  A    between atoms: _143  and  _146
REMARK   64  A    between atoms: _146  and  _147
REMARK   65  A    between atoms: _150  and  _152
REMARK   66  A    between atoms: _152  and  _153
REMARK   67  A    between atoms: _155  and  _157
REMARK   68  A    between atoms: _157  and  _158
REMARK   69  A    between atoms: _160  and  _162
REMARK   70  A    between atoms: _162  and  _163
REMARK   71  A    between atoms: _162  and  _165
REMARK   72  A    between atoms: _165  and  _166
REMARK   73  A    between atoms: _169  and  _171
REMARK   74  A    between atoms: _171  and  _172
REMARK   75  A    between atoms: _171  and  _174
REMARK   76  A    between atoms: _177  and  _179
REMARK   77  A    between atoms: _179  and  _180
REMARK   78  A    between atoms: _179  and  _182
REMARK   79  A    between atoms: _182  and  _183
REMARK   80  A    between atoms: _186  and  _188
REMARK   81  A    between atoms: _188  and  _189
REMARK   82  A    between atoms: _188  and  _191
REMARK   83  A    between atoms: _191  and  _192
REMARK   84  A    between atoms: _196  and  _197
REMARK   85  A    between atoms: _202  and  _204
REMARK   86  A    between atoms: _204  and  _205
REMARK   87  A    between atoms: _204  and  _207
REMARK   88  A    between atoms: _210  and  _212
REMARK   89  A    between atoms: _212  and  _213
REMARK   90  A    between atoms: _212  and  _215
REMARK   91  A    between atoms: _215  and  _216
REMARK   92  A    between atoms: _221  and  _223
REMARK   93  A    between atoms: _223  and  _224
REMARK   94  A    between atoms: _223  and  _226
REMARK   95  A    between atoms: _226  and  _227
REMARK   96  A    between atoms: _230  and  _232
REMARK   97  A    between atoms: _232  and  _233
REMARK   98  A    between atoms: _232  and  _235
REMARK   99  A    between atoms: _235  and  _236
REMARK  100  A    between atoms: _239  and  _241
REMARK  101  A    between atoms: _241  and  _242
REMARK  102  A    between atoms: _244  and  _246
REMARK  103  A    between atoms: _246  and  _247
REMARK  104  A    between atoms: _246  and  _249
REMARK  105  A    between atoms: _249  and  _250
REMARK  106  A    between atoms: _250  and  _251
REMARK  107  A    between atoms: _251  and  _252
REMARK  108  A    between atoms: _261  and  _263
REMARK  109  A    between atoms: _263  and  _264
REMARK  110  A    between atoms: _263  and  _266
REMARK  111  A    between atoms: _266  and  _267
REMARK  112  A    between atoms: _272  and  _274
REMARK  113  A    between atoms: _274  and  _275
REMARK  114  A    between atoms: _274  and  _277
REMARK  115  A    between atoms: _277  and  _278
REMARK  116  A    between atoms: _278  and  _279
REMARK  117  A    between atoms: _279  and  _280
REMARK  118  A    between atoms: _289  and  _291
REMARK  119  A    between atoms: _291  and  _292
REMARK  120  A    between atoms: _291  and  _294
REMARK  121  A    between atoms: _294  and  _295
REMARK  122  A    between atoms: _298  and  _300
REMARK  123  A    between atoms: _300  and  _301
REMARK  124  A    between atoms: _300  and  _303
REMARK  125  A    between atoms: _303  and  _304
REMARK  126  A    between atoms: _307  and  _309
REMARK  127  A    between atoms: _309  and  _310
REMARK  128  A    between atoms: _309  and  _312
REMARK  129  A    between atoms: _312  and  _313
REMARK  130  A    between atoms: _316  and  _318
REMARK  131  A    between atoms: _318  and  _319
REMARK  132  A    between atoms: _318  and  _321
REMARK  133  A    between atoms: _321  and  _322
REMARK  134  A    between atoms: _325  and  _327
REMARK  135  A    between atoms: _327  and  _328
REMARK  136  A    between atoms: _330  and  _332
REMARK  137  A    between atoms: _332  and  _333
REMARK  138  A    between atoms: _336  and  _338
REMARK  139  A    between atoms: _338  and  _339
REMARK  140  A    between atoms: _338  and  _341
REMARK  141  A    between atoms: _341  and  _342
REMARK  142  A    between atoms: _345  and  _347
REMARK  143  A    between atoms: _347  and  _348
REMARK  144  A    between atoms: _347  and  _350
REMARK  145  A    between atoms: _350  and  _351
REMARK  146  A    between atoms: _354  and  _356
REMARK  147  A    between atoms: _356  and  _357
REMARK  148  A    between atoms: _356  and  _359
REMARK  149  A    between atoms: _359  and  _360
REMARK  150  A    between atoms: _363  and  _365
REMARK  151  A    between atoms: _365  and  _366
REMARK  152  A    between atoms: _365  and  _368
REMARK  153  A    between atoms: _371  and  _373
REMARK  154  A    between atoms: _373  and  _374
REMARK  155  A    between atoms: _373  and  _376
REMARK  156  A    between atoms: _376  and  _377
REMARK  157  A    between atoms: _380  and  _382
REMARK  158  A    between atoms: _382  and  _383
REMARK  159  A    between atoms: _382  and  _385
REMARK  160  A    between atoms: _385  and  _386
REMARK  161  A    between atoms: _386  and  _387
REMARK  162  A    between atoms: _387  and  _388
REMARK  163  A    between atoms: _388  and  _389
REMARK  164  A    between atoms: _393  and  _395
REMARK  165  A    between atoms: _395  and  _396
REMARK  166  A    between atoms: _395  and  _398
REMARK  167  A    between atoms: _398  and  _399
REMARK  168  A    between atoms: _399  and  _400
REMARK  169  A    between atoms: _402  and  _404
REMARK  170  A    between atoms: _404  and  _405
REMARK  171  A    between atoms: _404  and  _407
REMARK  172  A    between atoms: _407  and  _408
REMARK  173  A    between atoms: _411  and  _413
REMARK  174  A    between atoms: _413  and  _414
REMARK  175  A    between atoms: _416  and  _418
REMARK  176  A    between atoms: _418  and  _419
REMARK  177  A    between atoms: _421  and  _423
REMARK  178  A    between atoms: _423  and  _424
REMARK  179  A    between atoms: _423  and  _426
REMARK  180  A    between atoms: _426  and  _427
REMARK  181  A    between atoms: _430  and  _432
REMARK  182  A    between atoms: _432  and  _433
REMARK  183  A    between atoms: _435  and  _437
REMARK  184  A    between atoms: _437  and  _438
REMARK  185  A    between atoms: _440  and  _442
REMARK  186  A    between atoms: _442  and  _443
REMARK  187  A    between atoms: _442  and  _445
REMARK  188  A    between atoms: _445  and  _446
REMARK  189  A    between atoms: _452  and  _454
REMARK  190  A    between atoms: _454  and  _455
REMARK  191  A    between atoms: _454  and  _457
REMARK  192  A    between atoms: _457  and  _458
REMARK  193  A    between atoms: _461  and  _463
REMARK  194  A    between atoms: _463  and  _464
REMARK  195  A    between atoms: _463  and  _466
REMARK  196  A    between atoms: _469  and  _471
REMARK  197  A    between atoms: _471  and  _472
REMARK  198  A    between atoms: _471  and  _474
REMARK  199  A    between atoms: _474  and  _475
REMARK  200  A    between atoms: _479  and  _480
REMARK  201  A    between atoms: _485  and  _487
REMARK  202  A    between atoms: _487  and  _488
REMARK  203  A    between atoms: _487  and  _490
REMARK  204  A    between atoms: _490  and  _491
REMARK  205  A    between atoms: _495  and  _496
REMARK  206  A    between atoms: _501  and  _503
REMARK  207  A    between atoms: _503  and  _504
REMARK  208  A    between atoms: _503  and  _506
REMARK  209  A    between atoms: _509  and  _511
REMARK  210  A    between atoms: _511  and  _512
REMARK  211  A    between atoms: _511  and  _514
REMARK  212  A    between atoms: _514  and  _515
REMARK  213  A    between atoms: _520  and  _522
REMARK  214  A    between atoms: _522  and  _523
REMARK  215  A    between atoms: _522  and  _525
REMARK  216  A    between atoms: _525  and  _526
REMARK  217  A    between atoms: _529  and  _531
REMARK  218  A    between atoms: _531  and  _532
REMARK  219  A    between atoms: _531  and  _534
REMARK  220  A    between atoms: _534  and  _535
REMARK  221  A    between atoms: _538  and  _540
REMARK  222  A    between atoms: _540  and  _541
REMARK  223  A    between atoms: _543  and  _545
REMARK  224  A    between atoms: _545  and  _546
REMARK  225  A    between atoms: _545  and  _548
REMARK  226  A    between atoms: _548  and  _549
REMARK  227  A    between atoms: _549  and  _550
REMARK  228  A    between atoms: _550  and  _551
REMARK  229  A    between atoms: _560  and  _562
REMARK  230  A    between atoms: _562  and  _563
REMARK  231  A    between atoms: _562  and  _565
REMARK  232  A    between atoms: _565  and  _566
REMARK                            x       y       z     vdW  Elec       q    Type
REMARK                         _______ _______ _______ _____ _____    ______ ____
ROOT
ATOM      1  C   GLY A   5      21.772  -7.013  19.806  0.00  0.00    +0.243 C 
ATOM      2  O   GLY A   5      22.039  -7.928  20.602  0.00  0.00    -0.273 OA
ATOM      3  N   ILE A   6      22.211  -5.755  19.925  0.00  0.00    -0.297 N 
ATOM      4  H   ILE A   6      21.983  -5.044  19.201  0.00  0.00    +0.150 HD
ENDROOT
BRANCH   3   5
ATOM      5  CA  ILE A   6      23.030  -5.392  21.110  0.00  0.00    +0.149 C 
BRANCH   5   6
ATOM      6  C   ILE A   6      22.194  -5.710  22.363  0.00  0.00    +0.241 C 
ATOM      7  N   GLY A   7      22.777  -6.474  23.269  0.00  0.00    -0.295 N 
ATOM      8  H   GLY A   7      23.755  -6.791  23.113  0.00  0.00    +0.150 HD
ATOM      9  O   ILE A   6      21.035  -5.253  22.452  0.00  0.00    -0.273 OA
BRANCH   7  10
ATOM     10  CA  GLY A   7      22.079  -6.885  24.487  0.00  0.00    +0.176 C 
BRANCH  10  11
ATOM     11  C   GLY A   7      21.334  -8.198  24.433  0.00  0.00    +0.243 C 
ATOM     12  O   GLY A   7      20.835  -8.701  25.468  0.00  0.00    -0.273 OA
ATOM     13  N   GLY A   8      21.170  -8.815  23.254  0.00  0.00    -0.295 N 
ATOM     14  H   GLY A   8      21.575  -8.388  22.397  0.00  0.00    +0.150 HD
BRANCH  13  15
ATOM     15  CA  GLY A   8      20.425 -10.090  23.144  0.00  0.00    +0.176 C 
BRANCH  15  16
ATOM     16  C   GLY A   8      19.129  -9.963  22.356  0.00  0.00    +0.243 C 
ATOM     17  N   PHE A   9      18.244 -10.898  22.638  0.00  0.00    -0.297 N 
ATOM     18  H   PHE A   9      18.457 -11.551  23.419  0.00  0.00    +0.150 HD
ATOM     19  O   GLY A   8      18.958  -9.073  21.514  0.00  0.00    -0.273 OA
BRANCH  17  20
ATOM     20  CA  PHE A   9      16.975 -11.075  21.918  0.00  0.00    +0.153 C 
BRANCH  20  21
ATOM     21  C   PHE A   9      15.749 -10.647  22.741  0.00  0.00    +0.241 C 
ATOM     22  O   PHE A   9      15.710 -10.741  23.970  0.00  0.00    -0.273 OA
ATOM     23  N   ILE A  10      14.715 -10.197  22.040  0.00  0.00    -0.298 N 
ATOM     24  H   ILE A  10      14.870  -9.995  21.032  0.00  0.00    +0.150 HD
BRANCH  23  25
ATOM     25  CA  ILE A  10      13.369  -9.963  22.579  0.00  0.00    +0.137 C 
BRANCH  25  26
ATOM     26  C   ILE A  10      12.330 -10.712  21.728  0.00  0.00    +0.227 C 
ATOM     27  O   ILE A  10      12.505 -10.963  20.517  0.00  0.00    -0.286 OA
ENDBRANCH  25  26
BRANCH  25  28
ATOM     28  CB  ILE A  10      13.016  -8.443  22.655  0.00  0.00    +0.026 C 
ATOM     29  CG2 ILE A  10      13.895  -7.683  23.642  0.00  0.00    +0.002 C 
BRANCH  28  30
ATOM     30  CG1 ILE A  10      13.035  -7.780  21.293  0.00  0.00    +0.002 C 
ATOM     31  CD1 ILE A  10      12.470  -6.390  21.251  0.00  0.00    +0.000 C 
ENDBRANCH  28  30
ENDBRANCH  25  28
ENDBRANCH  23  25
ENDBRANCH  20  21
BRANCH  20  32
ATOM     32  CB  PHE A   9      16.795 -12.541  21.459  0.00  0.00    +0.055 C 
BRANCH  32  33
ATOM     33  CG  PHE A   9      17.686 -12.966  20.301  0.00  0.00    -0.020 A 
ATOM     34  CD2 PHE A   9      19.062 -13.190  20.508  0.00  0.00    -0.004 A 
ATOM     35  CE2 PHE A   9      19.829 -13.577  19.452  0.00  0.00    -0.000 A 
ATOM     36  CZ  PHE A   9      19.340 -13.765  18.184  0.00  0.00    -0.000 A 
ATOM     37  CE1 PHE A   9      17.976 -13.559  17.967  0.00  0.00    -0.000 A 
ATOM     38  CD1 PHE A   9      17.151 -13.155  19.034  0.00  0.00    -0.004 A 
ENDBRANCH  32  33
ENDBRANCH  20  32
ENDBRANCH  17  20
ENDBRANCH  15  16
ENDBRANCH  13  15
ENDBRANCH  10  11
ENDBRANCH   7  10
ENDBRANCH   5   6
BRANCH   5  39
ATOM     39  CB  ILE A   6      23.385  -3.898  21.033  0.00  0.00    +0.027 C 
ATOM     40  CG2 ILE A   6      23.911  -3.415  22.378  0.00  0.00    +0.002 C 
BRANCH  39  41
ATOM     41  CG1 ILE A   6      24.309  -3.613  19.870  0.00  0.00    +0.002 C 
ATOM     42  CD1 ILE A   6      25.766  -3.918  20.047  0.00  0.00    +0.000 C 
ENDBRANCH  39  41
ENDBRANCH   5  39
ENDBRANCH   3   5
BRANCH   1  43
ATOM     43  CA  GLY A   5      20.968  -7.294  18.529  0.00  0.00    +0.176 C 
BRANCH  43  45
ATOM     44  C   GLY A   4      19.270  -8.893  17.810  0.00  0.00    +0.243 C 
ATOM     45  N   GLY A   5      19.932  -8.296  18.797  0.00  0.00    -0.295 N 
ATOM     46  H   GLY A   5      19.710  -8.546  19.782  0.00  0.00    +0.150 HD
ATOM     47  O   GLY A   4      19.425  -8.619  16.619  0.00  0.00    -0.273 OA
BRANCH  44  48
ATOM     48  CA  GLY A   4      18.288  -9.944  18.313  0.00  0.00    +0.176 C 
BRANCH  48  51
ATOM     49  C   ILE A   3      15.893 -10.239  18.065  0.00  0.00    +0.241 C 
ATOM     50  O   ILE A   3      15.697 -10.048  19.269  0.00  0.00    -0.273 OA
ATOM     51  N   GLY A   4      17.102 -10.132  17.508  0.00  0.00    -0.295 N 
ATOM     52  H   GLY A   4      17.192 -10.185  16.473  0.00  0.00    +0.150 HD
BRANCH  49  53
ATOM     53  CA  ILE A   3      14.751 -10.596  17.100  0.00  0.00    +0.149 C 
BRANCH  53  55
ATOM     54  C   MET A   2      13.380 -12.680  17.377  0.00  0.00    +0.241 C 
ATOM     55  N   ILE A   3      13.771 -11.464  17.806  0.00  0.00    -0.297 N 
ATOM     56  H   ILE A   3      13.359 -11.108  18.692  0.00  0.00    +0.150 HD
ATOM     57  O   MET A   2      13.756 -13.134  16.302  0.00  0.00    -0.273 OA
BRANCH  54  58
ATOM     58  CA  MET A   2      12.450 -13.491  18.279  0.00  0.00    +0.149 C 
BRANCH  58  61
ATOM     59  C   LYS A   1      10.113 -13.706  17.598  0.00  0.00    +0.238 C 
ATOM     60  O   LYS A   1       9.709 -12.943  18.525  0.00  0.00    -0.274 OA
ATOM     61  N   MET A   2      11.383 -14.104  17.470  0.00  0.00    -0.297 N 
ATOM     62  H   MET A   2      11.620 -14.855  16.791  0.00  0.00    +0.150 HD
BRANCH  59  63
ATOM     63  CA  LYS A   1       9.116 -14.164  16.532  0.00  0.00    +0.145 C 
BRANCH  63  64
ATOM     64  N   LYS A   1       7.787 -14.280  17.133  0.00  0.00    -0.238 NA
ATOM     65  H   LYS A   1       7.552 -13.636  17.915  0.00  0.00    +0.142 HD
ENDBRANCH  63  64
BRANCH  63  66
ATOM     66  CB  LYS A   1       9.010 -13.122  15.361  0.00  0.00    +0.026 C 
BRANCH  66  67
ATOM     67  CG  LYS A   1      10.238 -12.925  14.518  0.00  0.00    -0.000 C 
BRANCH  67  68
ATOM     68  CD  LYS A   1      10.019 -12.046  13.294  0.00  0.00    -0.024 C 
BRANCH  68  69
ATOM     69  CE  LYS A   1      11.301 -11.705  12.577  0.00  0.00    -0.086 C 
BRANCH  69  70
ATOM     70  NZ  LYS A   1      11.771 -12.698  11.629  0.00  0.00    +0.380 N 
ATOM     71  HZ1 LYS A   1      11.942 -13.596  12.125  0.00  0.00    -0.089 HD
ATOM     72  HZ2 LYS A   1      12.655 -12.368  11.193  0.00  0.00    -0.089 HD
ATOM     73  HZ3 LYS A   1      11.051 -12.840  10.892  0.00  0.00    -0.089 HD
ENDBRANCH  69  70
ENDBRANCH  68  69
ENDBRANCH  67  68
ENDBRANCH  66  67
ENDBRANCH  63  66
ENDBRANCH  59  63
ENDBRANCH  58  61
BRANCH  58  74
ATOM     74  CB  MET A   2      13.286 -14.589  18.943  0.00  0.00    +0.041 C 
BRANCH  74  75
ATOM     75  CG  MET A   2      12.562 -15.446  19.989  0.00  0.00    +0.060 C 
BRANCH  75  76
ATOM     76  SD  MET A   2      12.460 -14.519  21.523  0.00  0.00    -0.139 S 
ATOM     77  CE  MET A   2      14.025 -15.072  22.284  0.00  0.00    +0.069 C 
ENDBRANCH  75  76
ENDBRANCH  74  75
ENDBRANCH  58  74
ENDBRANCH  54  58
ENDBRANCH  53  55
BRANCH  53  78
ATOM     78  CB  ILE A   3      14.074  -9.354  16.515  0.00  0.00    +0.027 C 
ATOM     79  CG2 ILE A   3      13.072  -9.776  15.439  0.00  0.00    +0.002 C 
BRANCH  78  80
ATOM     80  CG1 ILE A   3      13.439  -8.415  17.503  0.00  0.00    +0.002 C 
ATOM     81  CD1 ILE A   3      12.994  -7.051  17.003  0.00  0.00    +0.000 C 
ENDBRANCH  78  80
ENDBRANCH  53  78
ENDBRANCH  49  53
ENDBRANCH  48  51
ENDBRANCH  44  48
ENDBRANCH  43  45
ENDBRANCH   1  43
TORSDOF 36
REMARK  Name = ../refined-set-2016/1kzk/1kzk_pocket.pdb
REMARK  232 active torsions:
REMARK  status: ('A' for Active; 'I' for Inactive)
REMARK    1  A    between atoms: _1  and  _3
REMARK    2  A    between atoms: _3  and  _4
REMARK    3  A    between atoms: _3  and  _6
REMARK    4  A    between atoms: _6  and  _7
REMARK    5  A    between atoms: _7  and  _8
REMARK    6  A    between atoms: _8  and  _9
REMARK    7  A    between atoms: _18  and  _20
REMARK    8  A    between atoms: _20  and  _21
REMARK    9  A    between atoms: _20  and  _23
REMARK   10  A    between atoms: _23  and  _24
REMARK   11  A    between atoms: _27  and  _29
REMARK   12  A    between atoms: _29  and  _30
REMARK   13  A    between atoms: _29  and  _32
REMARK   14  A    between atoms: _32  and  _33
REMARK   15  A    between atoms: _36  and  _38
REMARK   16  A    between atoms: _38  and  _39
REMARK   17  A    between atoms: _38  and  _41
REMARK   18  A    between atoms: _41  and  _42
REMARK   19  A    between atoms: _45  and  _47
REMARK   20  A    between atoms: _47  and  _48
REMARK   21  A    between atoms: _47  and  _50
REMARK   22  A    between atoms: _50  and  _51
REMARK   23  A    between atoms: _54  and  _56
REMARK   24  A    between atoms: _56  and  _57
REMARK   25  A    between atoms: _59  and  _61
REMARK   26  A    between atoms: _61  and  _62
REMARK   27  A    between atoms: _65  and  _67
REMARK   28  A    between atoms: _67  and  _68
REMARK   29  A    between atoms: _67  and  _70
REMARK   30  A    between atoms: _70  and  _71
REMARK   31  A    between atoms: _74  and  _76
REMARK   32  A    between atoms: _76  and  _77
REMARK   33  A    between atoms: _76  and  _79
REMARK   34  A    between atoms: _79  and  _80
REMARK   35  A    between atoms: _83  and  _85
REMARK   36  A    between atoms: _85  and  _86
REMARK   37  A    between atoms: _85  and  _88
REMARK   38  A    between atoms: _88  and  _89
REMARK   39  A    between atoms: _92  and  _94
REMARK   40  A    between atoms: _94  and  _95
REMARK   41  A    between atoms: _94  and  _97
REMARK   42  A    between atoms: _100  and  _102
REMARK   43  A    between atoms: _102  and  _103
REMARK   44  A    between atoms: _102  and  _105
REMARK   45  A    between atoms: _106  and  _107
REMARK   46  A    between atoms: _107  and  _108
REMARK   47  A    between atoms: _108  and  _109
REMARK   48  A    between atoms: _113  and  _115
REMARK   49  A    between atoms: _115  and  _116
REMARK   50  A    between atoms: _115  and  _118
REMARK   51  A    between atoms: _118  and  _119
REMARK   52  A    between atoms: _119  and  _120
REMARK   53  A    between atoms: _122  and  _124
REMARK   54  A    between atoms: _124  and  _125
REMARK   55  A    between atoms: _124  and  _127
REMARK   56  A    between atoms: _127  and  _128
REMARK   57  A    between atoms: _131  and  _133
REMARK   58  A    between atoms: _133  and  _134
REMARK   59  A    between atoms: _136  and  _138
REMARK   60  A    between atoms: _138  and  _139
REMARK   61  A    between atoms: _141  and  _143
REMARK   62  A    between atoms: _143  and  _144
REMARK   63  A    between atoms: _143  and  _146
REMARK   64  A    between atoms: _146  and  _147
REMARK   65  A    between atoms: _150  and  _152
REMARK   66  A    between atoms: _152  and  _153
REMARK   67  A    between atoms: _155  and  _157
REMARK   68  A    between atoms: _157  and  _158
REMARK   69  A    between atoms: _160  and  _162
REMARK   70  A    between atoms: _162  and  _163
REMARK   71  A    between atoms: _162  and  _165
REMARK   72  A    between atoms: _165  and  _166
REMARK   73  A    between atoms: _169  and  _171
REMARK   74  A    between atoms: _171  and  _172
REMARK   75  A    between atoms: _171  and  _174
REMARK   76  A    between atoms: _177  and  _179
REMARK   77  A    between atoms: _179  and  _180
REMARK   78  A    between atoms: _179  and  _182
REMARK   79  A    between atoms: _182  and  _183
REMARK   80  A    between atoms: _186  and  _188
REMARK   81  A    between atoms: _188  and  _189
REMARK   82  A    between atoms: _188  and  _191
REMARK   83  A    between atoms: _191  and  _192
REMARK   84  A    between atoms: _196  and  _197
REMARK   85  A    between atoms: _202  and  _204
REMARK   86  A    between atoms: _204  and  _205
REMARK   87  A    between atoms: _204  and  _207
REMARK   88  A    between atoms: _210  and  _212
REMARK   89  A    between atoms: _212  and  _213
REMARK   90  A    between atoms: _212  and  _215
REMARK   91  A    between atoms: _215  and  _216
REMARK   92  A    between atoms: _221  and  _223
REMARK   93  A    between atoms: _223  and  _224
REMARK   94  A    between atoms: _223  and  _226
REMARK   95  A    between atoms: _226  and  _227
REMARK   96  A    between atoms: _230  and  _232
REMARK   97  A    between atoms: _232  and  _233
REMARK   98  A    between atoms: _232  and  _235
REMARK   99  A    between atoms: _235  and  _236
REMARK  100  A    between atoms: _239  and  _241
REMARK  101  A    between atoms: _241  and  _242
REMARK  102  A    between atoms: _244  and  _246
REMARK  103  A    between atoms: _246  and  _247
REMARK  104  A    between atoms: _246  and  _249
REMARK  105  A    between atoms: _249  and  _250
REMARK  106  A    between atoms: _250  and  _251
REMARK  107  A    between atoms: _251  and  _252
REMARK  108  A    between atoms: _261  and  _263
REMARK  109  A    between atoms: _263  and  _264
REMARK  110  A    between atoms: _263  and  _266
REMARK  111  A    between atoms: _266  and  _267
REMARK  112  A    between atoms: _272  and  _274
REMARK  113  A    between atoms: _274  and  _275
REMARK  114  A    between atoms: _274  and  _277
REMARK  115  A    between atoms: _277  and  _278
REMARK  116  A    between atoms: _278  and  _279
REMARK  117  A    between atoms: _279  and  _280
REMARK  118  A    between atoms: _289  and  _291
REMARK  119  A    between atoms: _291  and  _292
REMARK  120  A    between atoms: _291  and  _294
REMARK  121  A    between atoms: _294  and  _295
REMARK  122  A    between atoms: _298  and  _300
REMARK  123  A    between atoms: _300  and  _301
REMARK  124  A    between atoms: _300  and  _303
REMARK  125  A    between atoms: _303  and  _304
REMARK  126  A    between atoms: _307  and  _309
REMARK  127  A    between atoms: _309  and  _310
REMARK  128  A    between atoms: _309  and  _312
REMARK  129  A    between atoms: _312  and  _313
REMARK  130  A    between atoms: _316  and  _318
REMARK  131  A    between atoms: _318  and  _319
REMARK  132  A    between atoms: _318  and  _321
REMARK  133  A    between atoms: _321  and  _322
REMARK  134  A    between atoms: _325  and  _327
REMARK  135  A    between atoms: _327  and  _328
REMARK  136  A    between atoms: _330  and  _332
REMARK  137  A    between atoms: _332  and  _333
REMARK  138  A    between atoms: _336  and  _338
REMARK  139  A    between atoms: _338  and  _339
REMARK  140  A    between atoms: _338  and  _341
REMARK  141  A    between atoms: _341  and  _342
REMARK  142  A    between atoms: _345  and  _347
REMARK  143  A    between atoms: _347  and  _348
REMARK  144  A    between atoms: _347  and  _350
REMARK  145  A    between atoms: _350  and  _351
REMARK  146  A    between atoms: _354  and  _356
REMARK  147  A    between atoms: _356  and  _357
REMARK  148  A    between atoms: _356  and  _359
REMARK  149  A    between atoms: _359  and  _360
REMARK  150  A    between atoms: _363  and  _365
REMARK  151  A    between atoms: _365  and  _366
REMARK  152  A    between atoms: _365  and  _368
REMARK  153  A    between atoms: _371  and  _373
REMARK  154  A    between atoms: _373  and  _374
REMARK  155  A    between atoms: _373  and  _376
REMARK  156  A    between atoms: _376  and  _377
REMARK  157  A    between atoms: _380  and  _382
REMARK  158  A    between atoms: _382  and  _383
REMARK  159  A    between atoms: _382  and  _385
REMARK  160  A    between atoms: _385  and  _386
REMARK  161  A    between atoms: _386  and  _387
REMARK  162  A    between atoms: _387  and  _388
REMARK  163  A    between atoms: _388  and  _389
REMARK  164  A    between atoms: _393  and  _395
REMARK  165  A    between atoms: _395  and  _396
REMARK  166  A    between atoms: _395  and  _398
REMARK  167  A    between atoms: _398  and  _399
REMARK  168  A    between atoms: _399  and  _400
REMARK  169  A    between atoms: _402  and  _404
REMARK  170  A    between atoms: _404  and  _405
REMARK  171  A    between atoms: _404  and  _407
REMARK  172  A    between atoms: _407  and  _408
REMARK  173  A    between atoms: _411  and  _413
REMARK  174  A    between atoms: _413  and  _414
REMARK  175  A    between atoms: _416  and  _418
REMARK  176  A    between atoms: _418  and  _419
REMARK  177  A    between atoms: _421  and  _423
REMARK  178  A    between atoms: _423  and  _424
REMARK  179  A    between atoms: _423  and  _426
REMARK  180  A    between atoms: _426  and  _427
REMARK  181  A    between atoms: _430  and  _432
REMARK  182  A    between atoms: _432  and  _433
REMARK  183  A    between atoms: _435  and  _437
REMARK  184  A    between atoms: _437  and  _438
REMARK  185  A    between atoms: _440  and  _442
REMARK  186  A    between atoms: _442  and  _443
REMARK  187  A    between atoms: _442  and  _445
REMARK  188  A    between atoms: _445  and  _446
REMARK  189  A    between atoms: _452  and  _454
REMARK  190  A    between atoms: _454  and  _455
REMARK  191  A    between atoms: _454  and  _457
REMARK  192  A    between atoms: _457  and  _458
REMARK  193  A    between atoms: _461  and  _463
REMARK  194  A    between atoms: _463  and  _464
REMARK  195  A    between atoms: _463  and  _466
REMARK  196  A    between atoms: _469  and  _471
REMARK  197  A    between atoms: _471  and  _472
REMARK  198  A    between atoms: _471  and  _474
REMARK  199  A    between atoms: _474  and  _475
REMARK  200  A    between atoms: _479  and  _480
REMARK  201  A    between atoms: _485  and  _487
REMARK  202  A    between atoms: _487  and  _488
REMARK  203  A    between atoms: _487  and  _490
REMARK  204  A    between atoms: _490  and  _491
REMARK  205  A    between atoms: _495  and  _496
REMARK  206  A    between atoms: _501  and  _503
REMARK  207  A    between atoms: _503  and  _504
REMARK  208  A    between atoms: _503  and  _506
REMARK  209  A    between atoms: _509  and  _511
REMARK  210  A    between atoms: _511  and  _512
REMARK  211  A    between atoms: _511  and  _514
REMARK  212  A    between atoms: _514  and  _515
REMARK  213  A    between atoms: _520  and  _522
REMARK  214  A    between atoms: _522  and  _523
REMARK  215  A    between atoms: _522  and  _525
REMARK  216  A    between atoms: _525  and  _526
REMARK  217  A    between atoms: _529  and  _531
REMARK  218  A    between atoms: _531  and  _532
REMARK  219  A    between atoms: _531  and  _534
REMARK  220  A    between atoms: _534  and  _535
REMARK  221  A    between atoms: _538  and  _540
REMARK  222  A    between atoms: _540  and  _541
REMARK  223  A    between atoms: _543  and  _545
REMARK  224  A    between atoms: _545  and  _546
REMARK  225  A    between atoms: _545  and  _548
REMARK  226  A    between atoms: _548  and  _549
REMARK  227  A    between atoms: _549  and  _550
REMARK  228  A    between atoms: _550  and  _551
REMARK  229  A    between atoms: _560  and  _562
REMARK  230  A    between atoms: _562  and  _563
REMARK  231  A    between atoms: _562  and  _565
REMARK  232  A    between atoms: _565  and  _566
REMARK                            x       y       z     vdW  Elec       q    Type
REMARK                         _______ _______ _______ _____ _____    ______ ____
ROOT
ATOM      1  CA  VAL A   1       7.725  -9.761  19.373  0.00  0.00    +0.133 C 
ENDROOT
BRANCH   1   2
ATOM      2  CB  VAL A   1       8.503  -8.854  18.381  0.00  0.00    +0.023 C 
ATOM      3  CG2 VAL A   1       9.591  -8.032  19.067  0.00  0.00    +0.002 C 
ATOM      4  CG1 VAL A   1       9.088  -9.659  17.226  0.00  0.00    +0.002 C 
ENDBRANCH   1   2
BRANCH   1   5
ATOM      5  N   VAL A   1       8.653 -10.706  20.016  0.00  0.00    -0.239 NA
ATOM      6  H   VAL A   1       8.980 -11.526  19.467  0.00  0.00    +0.142 HD
ENDBRANCH   1   5
BRANCH   1   7
ATOM      7  C   VAL A   1       6.610 -10.519  18.680  0.00  0.00    +0.224 C 
ATOM      8  O   VAL A   1       6.667 -11.731  18.412  0.00  0.00    -0.287 OA
ENDBRANCH   1   7
TORSDOF 3
REMARK  Name = ../refined-set-2016/1kzk/1kzk_pocket.pdb
REMARK  232 active torsions:
REMARK  status: ('A' for Active; 'I' for Inactive)
REMARK    1  A    between atoms: _1  and  _3
REMARK    2  A    between atoms: _3  and  _4
REMARK    3  A    between atoms: _3  and  _6
REMARK    4  A    between atoms: _6  and  _7
REMARK    5  A    between atoms: _7  and  _8
REMARK    6  A    between atoms: _8  and  _9
REMARK    7  A    between atoms: _18  and  _20
REMARK    8  A    between atoms: _20  and  _21
REMARK    9  A    between atoms: _20  and  _23
REMARK   10  A    between atoms: _23  and  _24
REMARK   11  A    between atoms: _27  and  _29
REMARK   12  A    between atoms: _29  and  _30
REMARK   13  A    between atoms: _29  and  _32
REMARK   14  A    between atoms: _32  and  _33
REMARK   15  A    between atoms: _36  and  _38
REMARK   16  A    between atoms: _38  and  _39
REMARK   17  A    between atoms: _38  and  _41
REMARK   18  A    between atoms: _41  and  _42
REMARK   19  A    between atoms: _45  and  _47
REMARK   20  A    between atoms: _47  and  _48
REMARK   21  A    between atoms: _47  and  _50
REMARK   22  A    between atoms: _50  and  _51
REMARK   23  A    between atoms: _54  and  _56
REMARK   24  A    between atoms: _56  and  _57
REMARK   25  A    between atoms: _59  and  _61
REMARK   26  A    between atoms: _61  and  _62
REMARK   27  A    between atoms: _65  and  _67
REMARK   28  A    between atoms: _67  and  _68
REMARK   29  A    between atoms: _67  and  _70
REMARK   30  A    between atoms: _70  and  _71
REMARK   31  A    between atoms: _74  and  _76
REMARK   32  A    between atoms: _76  and  _77
REMARK   33  A    between atoms: _76  and  _79
REMARK   34  A    between atoms: _79  and  _80
REMARK   35  A    between atoms: _83  and  _85
REMARK   36  A    between atoms: _85  and  _86
REMARK   37  A    between atoms: _85  and  _88
REMARK   38  A    between atoms: _88  and  _89
REMARK   39  A    between atoms: _92  and  _94
REMARK   40  A    between atoms: _94  and  _95
REMARK   41  A    between atoms: _94  and  _97
REMARK   42  A    between atoms: _100  and  _102
REMARK   43  A    between atoms: _102  and  _103
REMARK   44  A    between atoms: _102  and  _105
REMARK   45  A    between atoms: _106  and  _107
REMARK   46  A    between atoms: _107  and  _108
REMARK   47  A    between atoms: _108  and  _109
REMARK   48  A    between atoms: _113  and  _115
REMARK   49  A    between atoms: _115  and  _116
REMARK   50  A    between atoms: _115  and  _118
REMARK   51  A    between atoms: _118  and  _119
REMARK   52  A    between atoms: _119  and  _120
REMARK   53  A    between atoms: _122  and  _124
REMARK   54  A    between atoms: _124  and  _125
REMARK   55  A    between atoms: _124  and  _127
REMARK   56  A    between atoms: _127  and  _128
REMARK   57  A    between atoms: _131  and  _133
REMARK   58  A    between atoms: _133  and  _134
REMARK   59  A    between atoms: _136  and  _138
REMARK   60  A    between atoms: _138  and  _139
REMARK   61  A    between atoms: _141  and  _143
REMARK   62  A    between atoms: _143  and  _144
REMARK   63  A    between atoms: _143  and  _146
REMARK   64  A    between atoms: _146  and  _147
REMARK   65  A    between atoms: _150  and  _152
REMARK   66  A    between atoms: _152  and  _153
REMARK   67  A    between atoms: _155  and  _157
REMARK   68  A    between atoms: _157  and  _158
REMARK   69  A    between atoms: _160  and  _162
REMARK   70  A    between atoms: _162  and  _163
REMARK   71  A    between atoms: _162  and  _165
REMARK   72  A    between atoms: _165  and  _166
REMARK   73  A    between atoms: _169  and  _171
REMARK   74  A    between atoms: _171  and  _172
REMARK   75  A    between atoms: _171  and  _174
REMARK   76  A    between atoms: _177  and  _179
REMARK   77  A    between atoms: _179  and  _180
REMARK   78  A    between atoms: _179  and  _182
REMARK   79  A    between atoms: _182  and  _183
REMARK   80  A    between atoms: _186  and  _188
REMARK   81  A    between atoms: _188  and  _189
REMARK   82  A    between atoms: _188  and  _191
REMARK   83  A    between atoms: _191  and  _192
REMARK   84  A    between atoms: _196  and  _197
REMARK   85  A    between atoms: _202  and  _204
REMARK   86  A    between atoms: _204  and  _205
REMARK   87  A    between atoms: _204  and  _207
REMARK   88  A    between atoms: _210  and  _212
REMARK   89  A    between atoms: _212  and  _213
REMARK   90  A    between atoms: _212  and  _215
REMARK   91  A    between atoms: _215  and  _216
REMARK   92  A    between atoms: _221  and  _223
REMARK   93  A    between atoms: _223  and  _224
REMARK   94  A    between atoms: _223  and  _226
REMARK   95  A    between atoms: _226  and  _227
REMARK   96  A    between atoms: _230  and  _232
REMARK   97  A    between atoms: _232  and  _233
REMARK   98  A    between atoms: _232  and  _235
REMARK   99  A    between atoms: _235  and  _236
REMARK  100  A    between atoms: _239  and  _241
REMARK  101  A    between atoms: _241  and  _242
REMARK  102  A    between atoms: _244  and  _246
REMARK  103  A    between atoms: _246  and  _247
REMARK  104  A    between atoms: _246  and  _249
REMARK  105  A    between atoms: _249  and  _250
REMARK  106  A    between atoms: _250  and  _251
REMARK  107  A    between atoms: _251  and  _252
REMARK  108  A    between atoms: _261  and  _263
REMARK  109  A    between atoms: _263  and  _264
REMARK  110  A    between atoms: _263  and  _266
REMARK  111  A    between atoms: _266  and  _267
REMARK  112  A    between atoms: _272  and  _274
REMARK  113  A    between atoms: _274  and  _275
REMARK  114  A    between atoms: _274  and  _277
REMARK  115  A    between atoms: _277  and  _278
REMARK  116  A    between atoms: _278  and  _279
REMARK  117  A    between atoms: _279  and  _280
REMARK  118  A    between atoms: _289  and  _291
REMARK  119  A    between atoms: _291  and  _292
REMARK  120  A    between atoms: _291  and  _294
REMARK  121  A    between atoms: _294  and  _295
REMARK  122  A    between atoms: _298  and  _300
REMARK  123  A    between atoms: _300  and  _301
REMARK  124  A    between atoms: _300  and  _303
REMARK  125  A    between atoms: _303  and  _304
REMARK  126  A    between atoms: _307  and  _309
REMARK  127  A    between atoms: _309  and  _310
REMARK  128  A    between atoms: _309  and  _312
REMARK  129  A    between atoms: _312  and  _313
REMARK  130  A    between atoms: _316  and  _318
REMARK  131  A    between atoms: _318  and  _319
REMARK  132  A    between atoms: _318  and  _321
REMARK  133  A    between atoms: _321  and  _322
REMARK  134  A    between atoms: _325  and  _327
REMARK  135  A    between atoms: _327  and  _328
REMARK  136  A    between atoms: _330  and  _332
REMARK  137  A    between atoms: _332  and  _333
REMARK  138  A    between atoms: _336  and  _338
REMARK  139  A    between atoms: _338  and  _339
REMARK  140  A    between atoms: _338  and  _341
REMARK  141  A    between atoms: _341  and  _342
REMARK  142  A    between atoms: _345  and  _347
REMARK  143  A    between atoms: _347  and  _348
REMARK  144  A    between atoms: _347  and  _350
REMARK  145  A    between atoms: _350  and  _351
REMARK  146  A    between atoms: _354  and  _356
REMARK  147  A    between atoms: _356  and  _357
REMARK  148  A    between atoms: _356  and  _359
REMARK  149  A    between atoms: _359  and  _360
REMARK  150  A    between atoms: _363  and  _365
REMARK  151  A    between atoms: _365  and  _366
REMARK  152  A    between atoms: _365  and  _368
REMARK  153  A    between atoms: _371  and  _373
REMARK  154  A    between atoms: _373  and  _374
REMARK  155  A    between atoms: _373  and  _376
REMARK  156  A    between atoms: _376  and  _377
REMARK  157  A    between atoms: _380  and  _382
REMARK  158  A    between atoms: _382  and  _383
REMARK  159  A    between atoms: _382  and  _385
REMARK  160  A    between atoms: _385  and  _386
REMARK  161  A    between atoms: _386  and  _387
REMARK  162  A    between atoms: _387  and  _388
REMARK  163  A    between atoms: _388  and  _389
REMARK  164  A    between atoms: _393  and  _395
REMARK  165  A    between atoms: _395  and  _396
REMARK  166  A    between atoms: _395  and  _398
REMARK  167  A    between atoms: _398  and  _399
REMARK  168  A    between atoms: _399  and  _400
REMARK  169  A    between atoms: _402  and  _404
REMARK  170  A    between atoms: _404  and  _405
REMARK  171  A    between atoms: _404  and  _407
REMARK  172  A    between atoms: _407  and  _408
REMARK  173  A    between atoms: _411  and  _413
REMARK  174  A    between atoms: _413  and  _414
REMARK  175  A    between atoms: _416  and  _418
REMARK  176  A    between atoms: _418  and  _419
REMARK  177  A    between atoms: _421  and  _423
REMARK  178  A    between atoms: _423  and  _424
REMARK  179  A    between atoms: _423  and  _426
REMARK  180  A    between atoms: _426  and  _427
REMARK  181  A    between atoms: _430  and  _432
REMARK  182  A    between atoms: _432  and  _433
REMARK  183  A    between atoms: _435  and  _437
REMARK  184  A    between atoms: _437  and  _438
REMARK  185  A    between atoms: _440  and  _442
REMARK  186  A    between atoms: _442  and  _443
REMARK  187  A    between atoms: _442  and  _445
REMARK  188  A    between atoms: _445  and  _446
REMARK  189  A    between atoms: _452  and  _454
REMARK  190  A    between atoms: _454  and  _455
REMARK  191  A    between atoms: _454  and  _457
REMARK  192  A    between atoms: _457  and  _458
REMARK  193  A    between atoms: _461  and  _463
REMARK  194  A    between atoms: _463  and  _464
REMARK  195  A    between atoms: _463  and  _466
REMARK  196  A    between atoms: _469  and  _471
REMARK  197  A    between atoms: _471  and  _472
REMARK  198  A    between atoms: _471  and  _474
REMARK  199  A    between atoms: _474  and  _475
REMARK  200  A    between atoms: _479  and  _480
REMARK  201  A    between atoms: _485  and  _487
REMARK  202  A    between atoms: _487  and  _488
REMARK  203  A    between atoms: _487  and  _490
REMARK  204  A    between atoms: _490  and  _491
REMARK  205  A    between atoms: _495  and  _496
REMARK  206  A    between atoms: _501  and  _503
REMARK  207  A    between atoms: _503  and  _504
REMARK  208  A    between atoms: _503  and  _506
REMARK  209  A    between atoms: _509  and  _511
REMARK  210  A    between atoms: _511  and  _512
REMARK  211  A    between atoms: _511  and  _514
REMARK  212  A    between atoms: _514  and  _515
REMARK  213  A    between atoms: _520  and  _522
REMARK  214  A    between atoms: _522  and  _523
REMARK  215  A    between atoms: _522  and  _525
REMARK  216  A    between atoms: _525  and  _526
REMARK  217  A    between atoms: _529  and  _531
REMARK  218  A    between atoms: _531  and  _532
REMARK  219  A    between atoms: _531  and  _534
REMARK  220  A    between atoms: _534  and  _535
REMARK  221  A    between atoms: _538  and  _540
REMARK  222  A    between atoms: _540  and  _541
REMARK  223  A    between atoms: _543  and  _545
REMARK  224  A    between atoms: _545  and  _546
REMARK  225  A    between atoms: _545  and  _548
REMARK  226  A    between atoms: _548  and  _549
REMARK  227  A    between atoms: _549  and  _550
REMARK  228  A    between atoms: _550  and  _551
REMARK  229  A    between atoms: _560  and  _562
REMARK  230  A    between atoms: _562  and  _563
REMARK  231  A    between atoms: _562  and  _565
REMARK  232  A    between atoms: _565  and  _566
REMARK                            x       y       z     vdW  Elec       q    Type
REMARK                         _______ _______ _______ _____ _____    ______ ____
ROOT
ATOM      1  CA  LEU A   1       6.678  -6.370  14.462  0.00  0.00    +0.133 C 
ENDROOT
BRANCH   1   2
ATOM      2  N   LEU A   1       6.484  -5.626  13.227  0.00  0.00    -0.239 NA
ATOM      3  H   LEU A   1       7.217  -4.943  12.947  0.00  0.00    +0.142 HD
ENDBRANCH   1   2
BRANCH   1   4
ATOM      4  C   LEU A   1       6.307  -5.449  15.645  0.00  0.00    +0.224 C 
ATOM      5  O   LEU A   1       6.552  -4.215  15.538  0.00  0.00    -0.287 OA
ENDBRANCH   1   4
BRANCH   1   6
ATOM      6  CB  LEU A   1       8.140  -6.829  14.620  0.00  0.00    +0.025 C 
BRANCH   6   7
ATOM      7  CG  LEU A   1       8.764  -7.520  13.406  0.00  0.00    +0.002 C 
ATOM      8  CD2 LEU A   1      10.221  -7.902  13.637  0.00  0.00    +0.000 C 
ATOM      9  CD1 LEU A   1       7.993  -8.745  12.984  0.00  0.00    +0.000 C 
ENDBRANCH   6   7
ENDBRANCH   1   6
TORSDOF 4
REMARK  Name = ../refined-set-2016/1kzk/1kzk_pocket.pdb
REMARK  232 active torsions:
REMARK  status: ('A' for Active; 'I' for Inactive)
REMARK    1  A    between atoms: _1  and  _3
REMARK    2  A    between atoms: _3  and  _4
REMARK    3  A    between atoms: _3  and  _6
REMARK    4  A    between atoms: _6  and  _7
REMARK    5  A    between atoms: _7  and  _8
REMARK    6  A    between atoms: _8  and  _9
REMARK    7  A    between atoms: _18  and  _20
REMARK    8  A    between atoms: _20  and  _21
REMARK    9  A    between atoms: _20  and  _23
REMARK   10  A    between atoms: _23  and  _24
REMARK   11  A    between atoms: _27  and  _29
REMARK   12  A    between atoms: _29  and  _30
REMARK   13  A    between atoms: _29  and  _32
REMARK   14  A    between atoms: _32  and  _33
REMARK   15  A    between atoms: _36  and  _38
REMARK   16  A    between atoms: _38  and  _39
REMARK   17  A    between atoms: _38  and  _41
REMARK   18  A    between atoms: _41  and  _42
REMARK   19  A    between atoms: _45  and  _47
REMARK   20  A    between atoms: _47  and  _48
REMARK   21  A    between atoms: _47  and  _50
REMARK   22  A    between atoms: _50  and  _51
REMARK   23  A    between atoms: _54  and  _56
REMARK   24  A    between atoms: _56  and  _57
REMARK   25  A    between atoms: _59  and  _61
REMARK   26  A    between atoms: _61  and  _62
REMARK   27  A    between atoms: _65  and  _67
REMARK   28  A    between atoms: _67  and  _68
REMARK   29  A    between atoms: _67  and  _70
REMARK   30  A    between atoms: _70  and  _71
REMARK   31  A    between atoms: _74  and  _76
REMARK   32  A    between atoms: _76  and  _77
REMARK   33  A    between atoms: _76  and  _79
REMARK   34  A    between atoms: _79  and  _80
REMARK   35  A    between atoms: _83  and  _85
REMARK   36  A    between atoms: _85  and  _86
REMARK   37  A    between atoms: _85  and  _88
REMARK   38  A    between atoms: _88  and  _89
REMARK   39  A    between atoms: _92  and  _94
REMARK   40  A    between atoms: _94  and  _95
REMARK   41  A    between atoms: _94  and  _97
REMARK   42  A    between atoms: _100  and  _102
REMARK   43  A    between atoms: _102  and  _103
REMARK   44  A    between atoms: _102  and  _105
REMARK   45  A    between atoms: _106  and  _107
REMARK   46  A    between atoms: _107  and  _108
REMARK   47  A    between atoms: _108  and  _109
REMARK   48  A    between atoms: _113  and  _115
REMARK   49  A    between atoms: _115  and  _116
REMARK   50  A    between atoms: _115  and  _118
REMARK   51  A    between atoms: _118  and  _119
REMARK   52  A    between atoms: _119  and  _120
REMARK   53  A    between atoms: _122  and  _124
REMARK   54  A    between atoms: _124  and  _125
REMARK   55  A    between atoms: _124  and  _127
REMARK   56  A    between atoms: _127  and  _128
REMARK   57  A    between atoms: _131  and  _133
REMARK   58  A    between atoms: _133  and  _134
REMARK   59  A    between atoms: _136  and  _138
REMARK   60  A    between atoms: _138  and  _139
REMARK   61  A    between atoms: _141  and  _143
REMARK   62  A    between atoms: _143  and  _144
REMARK   63  A    between atoms: _143  and  _146
REMARK   64  A    between atoms: _146  and  _147
REMARK   65  A    between atoms: _150  and  _152
REMARK   66  A    between atoms: _152  and  _153
REMARK   67  A    between atoms: _155  and  _157
REMARK   68  A    between atoms: _157  and  _158
REMARK   69  A    between atoms: _160  and  _162
REMARK   70  A    between atoms: _162  and  _163
REMARK   71  A    between atoms: _162  and  _165
REMARK   72  A    between atoms: _165  and  _166
REMARK   73  A    between atoms: _169  and  _171
REMARK   74  A    between atoms: _171  and  _172
REMARK   75  A    between atoms: _171  and  _174
REMARK   76  A    between atoms: _177  and  _179
REMARK   77  A    between atoms: _179  and  _180
REMARK   78  A    between atoms: _179  and  _182
REMARK   79  A    between atoms: _182  and  _183
REMARK   80  A    between atoms: _186  and  _188
REMARK   81  A    between atoms: _188  and  _189
REMARK   82  A    between atoms: _188  and  _191
REMARK   83  A    between atoms: _191  and  _192
REMARK   84  A    between atoms: _196  and  _197
REMARK   85  A    between atoms: _202  and  _204
REMARK   86  A    between atoms: _204  and  _205
REMARK   87  A    between atoms: _204  and  _207
REMARK   88  A    between atoms: _210  and  _212
REMARK   89  A    between atoms: _212  and  _213
REMARK   90  A    between atoms: _212  and  _215
REMARK   91  A    between atoms: _215  and  _216
REMARK   92  A    between atoms: _221  and  _223
REMARK   93  A    between atoms: _223  and  _224
REMARK   94  A    between atoms: _223  and  _226
REMARK   95  A    between atoms: _226  and  _227
REMARK   96  A    between atoms: _230  and  _232
REMARK   97  A    between atoms: _232  and  _233
REMARK   98  A    between atoms: _232  and  _235
REMARK   99  A    between atoms: _235  and  _236
REMARK  100  A    between atoms: _239  and  _241
REMARK  101  A    between atoms: _241  and  _242
REMARK  102  A    between atoms: _244  and  _246
REMARK  103  A    between atoms: _246  and  _247
REMARK  104  A    between atoms: _246  and  _249
REMARK  105  A    between atoms: _249  and  _250
REMARK  106  A    between atoms: _250  and  _251
REMARK  107  A    between atoms: _251  and  _252
REMARK  108  A    between atoms: _261  and  _263
REMARK  109  A    between atoms: _263  and  _264
REMARK  110  A    between atoms: _263  and  _266
REMARK  111  A    between atoms: _266  and  _267
REMARK  112  A    between atoms: _272  and  _274
REMARK  113  A    between atoms: _274  and  _275
REMARK  114  A    between atoms: _274  and  _277
REMARK  115  A    between atoms: _277  and  _278
REMARK  116  A    between atoms: _278  and  _279
REMARK  117  A    between atoms: _279  and  _280
REMARK  118  A    between atoms: _289  and  _291
REMARK  119  A    between atoms: _291  and  _292
REMARK  120  A    between atoms: _291  and  _294
REMARK  121  A    between atoms: _294  and  _295
REMARK  122  A    between atoms: _298  and  _300
REMARK  123  A    between atoms: _300  and  _301
REMARK  124  A    between atoms: _300  and  _303
REMARK  125  A    between atoms: _303  and  _304
REMARK  126  A    between atoms: _307  and  _309
REMARK  127  A    between atoms: _309  and  _310
REMARK  128  A    between atoms: _309  and  _312
REMARK  129  A    between atoms: _312  and  _313
REMARK  130  A    between atoms: _316  and  _318
REMARK  131  A    between atoms: _318  and  _319
REMARK  132  A    between atoms: _318  and  _321
REMARK  133  A    between atoms: _321  and  _322
REMARK  134  A    between atoms: _325  and  _327
REMARK  135  A    between atoms: _327  and  _328
REMARK  136  A    between atoms: _330  and  _332
REMARK  137  A    between atoms: _332  and  _333
REMARK  138  A    between atoms: _336  and  _338
REMARK  139  A    between atoms: _338  and  _339
REMARK  140  A    between atoms: _338  and  _341
REMARK  141  A    between atoms: _341  and  _342
REMARK  142  A    between atoms: _345  and  _347
REMARK  143  A    between atoms: _347  and  _348
REMARK  144  A    between atoms: _347  and  _350
REMARK  145  A    between atoms: _350  and  _351
REMARK  146  A    between atoms: _354  and  _356
REMARK  147  A    between atoms: _356  and  _357
REMARK  148  A    between atoms: _356  and  _359
REMARK  149  A    between atoms: _359  and  _360
REMARK  150  A    between atoms: _363  and  _365
REMARK  151  A    between atoms: _365  and  _366
REMARK  152  A    between atoms: _365  and  _368
REMARK  153  A    between atoms: _371  and  _373
REMARK  154  A    between atoms: _373  and  _374
REMARK  155  A    between atoms: _373  and  _376
REMARK  156  A    between atoms: _376  and  _377
REMARK  157  A    between atoms: _380  and  _382
REMARK  158  A    between atoms: _382  and  _383
REMARK  159  A    between atoms: _382  and  _385
REMARK  160  A    between atoms: _385  and  _386
REMARK  161  A    between atoms: _386  and  _387
REMARK  162  A    between atoms: _387  and  _388
REMARK  163  A    between atoms: _388  and  _389
REMARK  164  A    between atoms: _393  and  _395
REMARK  165  A    between atoms: _395  and  _396
REMARK  166  A    between atoms: _395  and  _398
REMARK  167  A    between atoms: _398  and  _399
REMARK  168  A    between atoms: _399  and  _400
REMARK  169  A    between atoms: _402  and  _404
REMARK  170  A    between atoms: _404  and  _405
REMARK  171  A    between atoms: _404  and  _407
REMARK  172  A    between atoms: _407  and  _408
REMARK  173  A    between atoms: _411  and  _413
REMARK  174  A    between atoms: _413  and  _414
REMARK  175  A    between atoms: _416  and  _418
REMARK  176  A    between atoms: _418  and  _419
REMARK  177  A    between atoms: _421  and  _423
REMARK  178  A    between atoms: _423  and  _424
REMARK  179  A    between atoms: _423  and  _426
REMARK  180  A    between atoms: _426  and  _427
REMARK  181  A    between atoms: _430  and  _432
REMARK  182  A    between atoms: _432  and  _433
REMARK  183  A    between atoms: _435  and  _437
REMARK  184  A    between atoms: _437  and  _438
REMARK  185  A    between atoms: _440  and  _442
REMARK  186  A    between atoms: _442  and  _443
REMARK  187  A    between atoms: _442  and  _445
REMARK  188  A    between atoms: _445  and  _446
REMARK  189  A    between atoms: _452  and  _454
REMARK  190  A    between atoms: _454  and  _455
REMARK  191  A    between atoms: _454  and  _457
REMARK  192  A    between atoms: _457  and  _458
REMARK  193  A    between atoms: _461  and  _463
REMARK  194  A    between atoms: _463  and  _464
REMARK  195  A    between atoms: _463  and  _466
REMARK  196  A    between atoms: _469  and  _471
REMARK  197  A    between atoms: _471  and  _472
REMARK  198  A    between atoms: _471  and  _474
REMARK  199  A    between atoms: _474  and  _475
REMARK  200  A    between atoms: _479  and  _480
REMARK  201  A    between atoms: _485  and  _487
REMARK  202  A    between atoms: _487  and  _488
REMARK  203  A    between atoms: _487  and  _490
REMARK  204  A    between atoms: _490  and  _491
REMARK  205  A    between atoms: _495  and  _496
REMARK  206  A    between atoms: _501  and  _503
REMARK  207  A    between atoms: _503  and  _504
REMARK  208  A    between atoms: _503  and  _506
REMARK  209  A    between atoms: _509  and  _511
REMARK  210  A    between atoms: _511  and  _512
REMARK  211  A    between atoms: _511  and  _514
REMARK  212  A    between atoms: _514  and  _515
REMARK  213  A    between atoms: _520  and  _522
REMARK  214  A    between atoms: _522  and  _523
REMARK  215  A    between atoms: _522  and  _525
REMARK  216  A    between atoms: _525  and  _526
REMARK  217  A    between atoms: _529  and  _531
REMARK  218  A    between atoms: _531  and  _532
REMARK  219  A    between atoms: _531  and  _534
REMARK  220  A    between atoms: _534  and  _535
REMARK  221  A    between atoms: _538  and  _540
REMARK  222  A    between atoms: _540  and  _541
REMARK  223  A    between atoms: _543  and  _545
REMARK  224  A    between atoms: _545  and  _546
REMARK  225  A    between atoms: _545  and  _548
REMARK  226  A    between atoms: _548  and  _549
REMARK  227  A    between atoms: _549  and  _550
REMARK  228  A    between atoms: _550  and  _551
REMARK  229  A    between atoms: _560  and  _562
REMARK  230  A    between atoms: _562  and  _563
REMARK  231  A    between atoms: _562  and  _565
REMARK  232  A    between atoms: _565  and  _566
REMARK                            x       y       z     vdW  Elec       q    Type
REMARK                         _______ _______ _______ _____ _____    ______ ____
ROOT
ATOM      1  CA  ILE A   6      12.165   1.541  14.385  0.00  0.00    +0.149 C 
ENDROOT
BRANCH   1   2
ATOM      2  C   ILE A   6      11.638   1.116  13.001  0.00  0.00    +0.241 C 
ATOM      3  O   ILE A   6      10.989   0.095  12.905  0.00  0.00    -0.273 OA
ATOM      4  N   ILE A   7      11.938   1.975  11.998  0.00  0.00    -0.297 N 
ATOM      5  H   ILE A   7      12.356   2.901  12.220  0.00  0.00    +0.150 HD
BRANCH   4   6
ATOM      6  CA  ILE A   7      11.678   1.611  10.598  0.00  0.00    +0.149 C 
BRANCH   6   7
ATOM      7  C   ILE A   7      12.934   1.003   9.992  0.00  0.00    +0.241 C 
ATOM      8  O   ILE A   7      13.981   1.658   9.920  0.00  0.00    -0.273 OA
ATOM      9  N   GLY A   8      12.836  -0.258   9.578  0.00  0.00    -0.295 N 
ATOM     10  H   GLY A   8      11.925  -0.751   9.675  0.00  0.00    +0.150 HD
BRANCH   9  11
ATOM     11  CA  GLY A   8      13.966  -0.971   8.992  0.00  0.00    +0.176 C 
BRANCH  11  12
ATOM     12  C   GLY A   8      13.865  -1.132   7.486  0.00  0.00    +0.243 C 
ATOM     13  N   ARG A   9      14.793  -1.925   6.913  0.00  0.00    -0.297 N 
ATOM     14  H   ARG A   9      15.353  -2.545   7.532  0.00  0.00    +0.150 HD
ATOM     15  O   GLY A   8      13.005  -0.554   6.797  0.00  0.00    -0.273 OA
BRANCH  13  16
ATOM     16  CA  ARG A   9      15.061  -1.968   5.482  0.00  0.00    +0.149 C 
BRANCH  16  17
ATOM     17  C   ARG A   9      13.853  -2.458   4.699  0.00  0.00    +0.241 C 
ATOM     18  N   ASN A  10      13.013  -3.337   5.253  0.00  0.00    -0.298 N 
ATOM     19  H   ASN A  10      13.223  -3.665   6.217  0.00  0.00    +0.150 HD
ATOM     20  O   ARG A   9      13.647  -2.062   3.541  0.00  0.00    -0.273 OA
BRANCH  18  21
ATOM     21  CA  ASN A  10      11.820  -3.870   4.598  0.00  0.00    +0.146 C 
BRANCH  21  22
ATOM     22  C   ASN A  10      10.901  -2.765   4.128  0.00  0.00    +0.227 C 
ATOM     23  O   ASN A  10      10.285  -2.878   3.062  0.00  0.00    -0.286 OA
ENDBRANCH  21  22
BRANCH  21  24
ATOM     24  CB  ASN A  10      11.046  -4.877   5.441  0.00  0.00    +0.112 C 
BRANCH  24  25
ATOM     25  CG  ASN A  10      10.281  -4.256   6.602  0.00  0.00    +0.222 C 
ATOM     26  OD1 ASN A  10      10.886  -3.528   7.423  0.00  0.00    -0.275 OA
ATOM     27  ND2 ASN A  10       8.976  -4.556   6.702  0.00  0.00    -0.329 N 
ATOM     28 HD21 ASN A  10       8.415  -4.178   7.492  0.00  0.00    +0.145 HD
ATOM     29 HD22 ASN A  10       8.527  -5.166   5.990  0.00  0.00    +0.145 HD
ENDBRANCH  24  25
ENDBRANCH  21  24
ENDBRANCH  18  21
ENDBRANCH  16  17
BRANCH  16  30
ATOM     30  CB  ARG A   9      16.297  -2.826   5.170  0.00  0.00    +0.033 C 
BRANCH  30  31
ATOM     31  CG  ARG A   9      17.607  -2.163   5.677  0.00  0.00    +0.045 C 
BRANCH  31  32
ATOM     32  CD  ARG A   9      18.886  -2.910   5.176  0.00  0.00    +0.174 C 
BRANCH  32  33
ATOM     33  NE  ARG A   9      18.899  -4.322   5.573  0.00  0.00    -0.265 N 
ATOM     34  HE  ARG A   9      19.247  -4.496   6.537  0.00  0.00    +0.259 HD
ATOM     35  CZ  ARG A   9      18.545  -5.405   4.916  0.00  0.00    +0.342 C 
ATOM     36  NH2 ARG A   9      18.656  -6.581   5.559  0.00  0.00    -0.292 N 
ATOM     37 HH21 ARG A   9      19.010  -6.608   6.536  0.00  0.00    +0.255 HD
ATOM     38 HH22 ARG A   9      18.388  -7.464   5.079  0.00  0.00    +0.255 HD
ATOM     39  NH1 ARG A   9      18.123  -5.290   3.659  0.00  0.00    -0.292 N 
ATOM     40 HH11 ARG A   9      18.077  -4.353   3.210  0.00  0.00    +0.255 HD
ATOM     41 HH12 ARG A   9      17.840  -6.137   3.126  0.00  0.00    +0.255 HD
ENDBRANCH  32  33
ENDBRANCH  31  32
ENDBRANCH  30  31
ENDBRANCH  16  30
ENDBRANCH  13  16
ENDBRANCH  11  12
ENDBRANCH   9  11
ENDBRANCH   6   7
BRANCH   6  42
ATOM     42  CB  ILE A   7      11.263   2.857   9.787  0.00  0.00    +0.027 C 
ATOM     43  CG2 ILE A   7      11.043   2.447   8.351  0.00  0.00    +0.002 C 
BRANCH  42  44
ATOM     44  CG1 ILE A   7      10.066   3.580  10.335  0.00  0.00    +0.002 C 
ATOM     45  CD1 ILE A   7       8.819   2.743  10.417  0.00  0.00    +0.000 C 
ENDBRANCH  42  44
ENDBRANCH   6  42
ENDBRANCH   4   6
ENDBRANCH   1   2
BRANCH   1  48
ATOM     46  C   ASN A   5      10.911   2.788  16.123  0.00  0.00    +0.241 C 
ATOM     47  O   ASN A   5      11.582   3.848  15.983  0.00  0.00    -0.273 OA
ATOM     48  N   ILE A   6      11.091   1.698  15.356  0.00  0.00    -0.297 N 
ATOM     49  H   ILE A   6      10.417   0.913  15.464  0.00  0.00    +0.150 HD
BRANCH  46  50
ATOM     50  CA  ASN A   5       9.841   2.754  17.217  0.00  0.00    +0.158 C 
BRANCH  50  53
ATOM     51  C   VAL A   4      11.326   2.466  19.113  0.00  0.00    +0.241 C 
ATOM     52  O   VAL A   4      11.667   1.326  18.745  0.00  0.00    -0.273 OA
ATOM     53  N   ASN A   5      10.385   3.203  18.499  0.00  0.00    -0.297 N 
ATOM     54  H   ASN A   5      10.046   4.086  18.932  0.00  0.00    +0.150 HD
BRANCH  51  55
ATOM     55  CA  VAL A   4      12.021   3.109  20.304  0.00  0.00    +0.149 C 
BRANCH  55  58
ATOM     56  C   PRO A   3      12.188   2.288  22.649  0.00  0.00    +0.241 C 
ATOM     57  O   PRO A   3      11.886   3.377  23.160  0.00  0.00    -0.273 OA
ATOM     58  N   VAL A   4      12.230   2.092  21.340  0.00  0.00    -0.297 N 
ATOM     59  H   VAL A   4      12.430   1.124  21.016  0.00  0.00    +0.150 HD
BRANCH  56  62
ATOM     60  C   THR A   2      11.526  -0.833  22.628  0.00  0.00    +0.246 C 
ATOM     61  N   PRO A   3      12.628  -0.154  22.978  0.00  0.00    -0.272 N 
ATOM     62  CA  PRO A   3      12.545   1.174  23.611  0.00  0.00    +0.152 C 
ATOM     63  CB  PRO A   3      13.965   1.396  24.171  0.00  0.00    +0.031 C 
ATOM     64  CG  PRO A   3      14.855   0.484  23.424  0.00  0.00    +0.024 C 
ATOM     65  CD  PRO A   3      14.022  -0.601  22.858  0.00  0.00    +0.094 C 
ATOM     66  O   THR A   2      10.411  -0.342  22.869  0.00  0.00    -0.273 OA
BRANCH  60  67
ATOM     67  CA  THR A   2      11.597  -2.172  21.897  0.00  0.00    +0.176 C 
BRANCH  67  70
ATOM     68  C   PRO A   1      10.606  -3.639  23.544  0.00  0.00    +0.239 C 
ATOM     69  O   PRO A   1      11.636  -3.597  24.236  0.00  0.00    -0.274 OA
ATOM     70  N   THR A   2      10.564  -3.041  22.375  0.00  0.00    -0.295 N 
ATOM     71  H   THR A   2       9.738  -3.207  21.765  0.00  0.00    +0.150 HD
BRANCH  68  73
ATOM     72  N   PRO A   1       8.646  -5.196  23.063  0.00  0.00    -0.210 NA
ATOM     73  CA  PRO A   1       9.348  -4.338  24.033  0.00  0.00    +0.149 C 
ATOM     74  CB  PRO A   1       9.665  -5.335  25.205  0.00  0.00    +0.028 C 
ATOM     75  CG  PRO A   1       9.780  -6.636  24.535  0.00  0.00    +0.021 C 
ATOM     76  CD  PRO A   1       8.712  -6.604  23.456  0.00  0.00    +0.089 C 
ENDBRANCH  68  73
ENDBRANCH  67  70
BRANCH  67  77
ATOM     77  CB  THR A   2      11.498  -1.932  20.364  0.00  0.00    +0.137 C 
ATOM     78  CG2 THR A   2      10.198  -1.345  19.858  0.00  0.00    +0.034 C 
BRANCH  77  79
ATOM     79  OG1 THR A   2      12.616  -1.015  20.054  0.00  0.00    -0.382 OA
ATOM     80  HG1 THR A   2      12.618  -0.814  19.085  0.00  0.00    +0.210 HD
ENDBRANCH  77  79
ENDBRANCH  67  77
ENDBRANCH  60  67
ENDBRANCH  56  62
ENDBRANCH  55  58
BRANCH  55  81
ATOM     81  CB  VAL A   4      13.273   3.912  19.900  0.00  0.00    +0.027 C 
ATOM     82  CG2 VAL A   4      14.111   4.428  21.071  0.00  0.00    +0.002 C 
ATOM     83  CG1 VAL A   4      14.210   3.108  19.043  0.00  0.00    +0.002 C 
ENDBRANCH  55  81
ENDBRANCH  51  55
ENDBRANCH  50  53
BRANCH  50  84
ATOM     84  CB  ASN A   5       8.652   3.635  16.771  0.00  0.00    +0.114 C 
BRANCH  84  85
ATOM     85  CG  ASN A   5       7.442   3.625  17.681  0.00  0.00    +0.222 C 
ATOM     86  ND2 ASN A   5       6.992   4.822  18.071  0.00  0.00    -0.329 N 
ATOM     87 HD21 ASN A   5       6.180   4.887  18.717  0.00  0.00    +0.145 HD
ATOM     88 HD22 ASN A   5       7.454   5.688  17.728  0.00  0.00    +0.145 HD
ATOM     89  OD1 ASN A   5       6.941   2.575  18.050  0.00  0.00    -0.275 OA
ENDBRANCH  84  85
ENDBRANCH  50  84
ENDBRANCH  46  50
ENDBRANCH   1  48
BRANCH   1  90
ATOM     90  CB  ILE A   6      13.216   0.505  14.897  0.00  0.00    +0.027 C 
ATOM     91  CG2 ILE A   6      14.184   0.102  13.808  0.00  0.00    +0.002 C 
BRANCH  90  92
ATOM     92  CG1 ILE A   6      13.933   1.023  16.128  0.00  0.00    +0.002 C 
ATOM     93  CD1 ILE A   6      14.695   0.001  16.938  0.00  0.00    +0.000 C 
ENDBRANCH  90  92
ENDBRANCH   1  90
TORSDOF 33
REMARK  Name = ../refined-set-2016/1kzk/1kzk_pocket.pdb
REMARK  232 active torsions:
REMARK  status: ('A' for Active; 'I' for Inactive)
REMARK    1  A    between atoms: _1  and  _3
REMARK    2  A    between atoms: _3  and  _4
REMARK    3  A    between atoms: _3  and  _6
REMARK    4  A    between atoms: _6  and  _7
REMARK    5  A    between atoms: _7  and  _8
REMARK    6  A    between atoms: _8  and  _9
REMARK    7  A    between atoms: _18  and  _20
REMARK    8  A    between atoms: _20  and  _21
REMARK    9  A    between atoms: _20  and  _23
REMARK   10  A    between atoms: _23  and  _24
REMARK   11  A    between atoms: _27  and  _29
REMARK   12  A    between atoms: _29  and  _30
REMARK   13  A    between atoms: _29  and  _32
REMARK   14  A    between atoms: _32  and  _33
REMARK   15  A    between atoms: _36  and  _38
REMARK   16  A    between atoms: _38  and  _39
REMARK   17  A    between atoms: _38  and  _41
REMARK   18  A    between atoms: _41  and  _42
REMARK   19  A    between atoms: _45  and  _47
REMARK   20  A    between atoms: _47  and  _48
REMARK   21  A    between atoms: _47  and  _50
REMARK   22  A    between atoms: _50  and  _51
REMARK   23  A    between atoms: _54  and  _56
REMARK   24  A    between atoms: _56  and  _57
REMARK   25  A    between atoms: _59  and  _61
REMARK   26  A    between atoms: _61  and  _62
REMARK   27  A    between atoms: _65  and  _67
REMARK   28  A    between atoms: _67  and  _68
REMARK   29  A    between atoms: _67  and  _70
REMARK   30  A    between atoms: _70  and  _71
REMARK   31  A    between atoms: _74  and  _76
REMARK   32  A    between atoms: _76  and  _77
REMARK   33  A    between atoms: _76  and  _79
REMARK   34  A    between atoms: _79  and  _80
REMARK   35  A    between atoms: _83  and  _85
REMARK   36  A    between atoms: _85  and  _86
REMARK   37  A    between atoms: _85  and  _88
REMARK   38  A    between atoms: _88  and  _89
REMARK   39  A    between atoms: _92  and  _94
REMARK   40  A    between atoms: _94  and  _95
REMARK   41  A    between atoms: _94  and  _97
REMARK   42  A    between atoms: _100  and  _102
REMARK   43  A    between atoms: _102  and  _103
REMARK   44  A    between atoms: _102  and  _105
REMARK   45  A    between atoms: _106  and  _107
REMARK   46  A    between atoms: _107  and  _108
REMARK   47  A    between atoms: _108  and  _109
REMARK   48  A    between atoms: _113  and  _115
REMARK   49  A    between atoms: _115  and  _116
REMARK   50  A    between atoms: _115  and  _118
REMARK   51  A    between atoms: _118  and  _119
REMARK   52  A    between atoms: _119  and  _120
REMARK   53  A    between atoms: _122  and  _124
REMARK   54  A    between atoms: _124  and  _125
REMARK   55  A    between atoms: _124  and  _127
REMARK   56  A    between atoms: _127  and  _128
REMARK   57  A    between atoms: _131  and  _133
REMARK   58  A    between atoms: _133  and  _134
REMARK   59  A    between atoms: _136  and  _138
REMARK   60  A    between atoms: _138  and  _139
REMARK   61  A    between atoms: _141  and  _143
REMARK   62  A    between atoms: _143  and  _144
REMARK   63  A    between atoms: _143  and  _146
REMARK   64  A    between atoms: _146  and  _147
REMARK   65  A    between atoms: _150  and  _152
REMARK   66  A    between atoms: _152  and  _153
REMARK   67  A    between atoms: _155  and  _157
REMARK   68  A    between atoms: _157  and  _158
REMARK   69  A    between atoms: _160  and  _162
REMARK   70  A    between atoms: _162  and  _163
REMARK   71  A    between atoms: _162  and  _165
REMARK   72  A    between atoms: _165  and  _166
REMARK   73  A    between atoms: _169  and  _171
REMARK   74  A    between atoms: _171  and  _172
REMARK   75  A    between atoms: _171  and  _174
REMARK   76  A    between atoms: _177  and  _179
REMARK   77  A    between atoms: _179  and  _180
REMARK   78  A    between atoms: _179  and  _182
REMARK   79  A    between atoms: _182  and  _183
REMARK   80  A    between atoms: _186  and  _188
REMARK   81  A    between atoms: _188  and  _189
REMARK   82  A    between atoms: _188  and  _191
REMARK   83  A    between atoms: _191  and  _192
REMARK   84  A    between atoms: _196  and  _197
REMARK   85  A    between atoms: _202  and  _204
REMARK   86  A    between atoms: _204  and  _205
REMARK   87  A    between atoms: _204  and  _207
REMARK   88  A    between atoms: _210  and  _212
REMARK   89  A    between atoms: _212  and  _213
REMARK   90  A    between atoms: _212  and  _215
REMARK   91  A    between atoms: _215  and  _216
REMARK   92  A    between atoms: _221  and  _223
REMARK   93  A    between atoms: _223  and  _224
REMARK   94  A    between atoms: _223  and  _226
REMARK   95  A    between atoms: _226  and  _227
REMARK   96  A    between atoms: _230  and  _232
REMARK   97  A    between atoms: _232  and  _233
REMARK   98  A    between atoms: _232  and  _235
REMARK   99  A    between atoms: _235  and  _236
REMARK  100  A    between atoms: _239  and  _241
REMARK  101  A    between atoms: _241  and  _242
REMARK  102  A    between atoms: _244  and  _246
REMARK  103  A    between atoms: _246  and  _247
REMARK  104  A    between atoms: _246  and  _249
REMARK  105  A    between atoms: _249  and  _250
REMARK  106  A    between atoms: _250  and  _251
REMARK  107  A    between atoms: _251  and  _252
REMARK  108  A    between atoms: _261  and  _263
REMARK  109  A    between atoms: _263  and  _264
REMARK  110  A    between atoms: _263  and  _266
REMARK  111  A    between atoms: _266  and  _267
REMARK  112  A    between atoms: _272  and  _274
REMARK  113  A    between atoms: _274  and  _275
REMARK  114  A    between atoms: _274  and  _277
REMARK  115  A    between atoms: _277  and  _278
REMARK  116  A    between atoms: _278  and  _279
REMARK  117  A    between atoms: _279  and  _280
REMARK  118  A    between atoms: _289  and  _291
REMARK  119  A    between atoms: _291  and  _292
REMARK  120  A    between atoms: _291  and  _294
REMARK  121  A    between atoms: _294  and  _295
REMARK  122  A    between atoms: _298  and  _300
REMARK  123  A    between atoms: _300  and  _301
REMARK  124  A    between atoms: _300  and  _303
REMARK  125  A    between atoms: _303  and  _304
REMARK  126  A    between atoms: _307  and  _309
REMARK  127  A    between atoms: _309  and  _310
REMARK  128  A    between atoms: _309  and  _312
REMARK  129  A    between atoms: _312  and  _313
REMARK  130  A    between atoms: _316  and  _318
REMARK  131  A    between atoms: _318  and  _319
REMARK  132  A    between atoms: _318  and  _321
REMARK  133  A    between atoms: _321  and  _322
REMARK  134  A    between atoms: _325  and  _327
REMARK  135  A    between atoms: _327  and  _328
REMARK  136  A    between atoms: _330  and  _332
REMARK  137  A    between atoms: _332  and  _333
REMARK  138  A    between atoms: _336  and  _338
REMARK  139  A    between atoms: _338  and  _339
REMARK  140  A    between atoms: _338  and  _341
REMARK  141  A    between atoms: _341  and  _342
REMARK  142  A    between atoms: _345  and  _347
REMARK  143  A    between atoms: _347  and  _348
REMARK  144  A    between atoms: _347  and  _350
REMARK  145  A    between atoms: _350  and  _351
REMARK  146  A    between atoms: _354  and  _356
REMARK  147  A    between atoms: _356  and  _357
REMARK  148  A    between atoms: _356  and  _359
REMARK  149  A    between atoms: _359  and  _360
REMARK  150  A    between atoms: _363  and  _365
REMARK  151  A    between atoms: _365  and  _366
REMARK  152  A    between atoms: _365  and  _368
REMARK  153  A    between atoms: _371  and  _373
REMARK  154  A    between atoms: _373  and  _374
REMARK  155  A    between atoms: _373  and  _376
REMARK  156  A    between atoms: _376  and  _377
REMARK  157  A    between atoms: _380  and  _382
REMARK  158  A    between atoms: _382  and  _383
REMARK  159  A    between atoms: _382  and  _385
REMARK  160  A    between atoms: _385  and  _386
REMARK  161  A    between atoms: _386  and  _387
REMARK  162  A    between atoms: _387  and  _388
REMARK  163  A    between atoms: _388  and  _389
REMARK  164  A    between atoms: _393  and  _395
REMARK  165  A    between atoms: _395  and  _396
REMARK  166  A    between atoms: _395  and  _398
REMARK  167  A    between atoms: _398  and  _399
REMARK  168  A    between atoms: _399  and  _400
REMARK  169  A    between atoms: _402  and  _404
REMARK  170  A    between atoms: _404  and  _405
REMARK  171  A    between atoms: _404  and  _407
REMARK  172  A    between atoms: _407  and  _408
REMARK  173  A    between atoms: _411  and  _413
REMARK  174  A    between atoms: _413  and  _414
REMARK  175  A    between atoms: _416  and  _418
REMARK  176  A    between atoms: _418  and  _419
REMARK  177  A    between atoms: _421  and  _423
REMARK  178  A    between atoms: _423  and  _424
REMARK  179  A    between atoms: _423  and  _426
REMARK  180  A    between atoms: _426  and  _427
REMARK  181  A    between atoms: _430  and  _432
REMARK  182  A    between atoms: _432  and  _433
REMARK  183  A    between atoms: _435  and  _437
REMARK  184  A    between atoms: _437  and  _438
REMARK  185  A    between atoms: _440  and  _442
REMARK  186  A    between atoms: _442  and  _443
REMARK  187  A    between atoms: _442  and  _445
REMARK  188  A    between atoms: _445  and  _446
REMARK  189  A    between atoms: _452  and  _454
REMARK  190  A    between atoms: _454  and  _455
REMARK  191  A    between atoms: _454  and  _457
REMARK  192  A    between atoms: _457  and  _458
REMARK  193  A    between atoms: _461  and  _463
REMARK  194  A    between atoms: _463  and  _464
REMARK  195  A    between atoms: _463  and  _466
REMARK  196  A    between atoms: _469  and  _471
REMARK  197  A    between atoms: _471  and  _472
REMARK  198  A    between atoms: _471  and  _474
REMARK  199  A    between atoms: _474  and  _475
REMARK  200  A    between atoms: _479  and  _480
REMARK  201  A    between atoms: _485  and  _487
REMARK  202  A    between atoms: _487  and  _488
REMARK  203  A    between atoms: _487  and  _490
REMARK  204  A    between atoms: _490  and  _491
REMARK  205  A    between atoms: _495  and  _496
REMARK  206  A    between atoms: _501  and  _503
REMARK  207  A    between atoms: _503  and  _504
REMARK  208  A    between atoms: _503  and  _506
REMARK  209  A    between atoms: _509  and  _511
REMARK  210  A    between atoms: _511  and  _512
REMARK  211  A    between atoms: _511  and  _514
REMARK  212  A    between atoms: _514  and  _515
REMARK  213  A    between atoms: _520  and  _522
REMARK  214  A    between atoms: _522  and  _523
REMARK  215  A    between atoms: _522  and  _525
REMARK  216  A    between atoms: _525  and  _526
REMARK  217  A    between atoms: _529  and  _531
REMARK  218  A    between atoms: _531  and  _532
REMARK  219  A    between atoms: _531  and  _534
REMARK  220  A    between atoms: _534  and  _535
REMARK  221  A    between atoms: _538  and  _540
REMARK  222  A    between atoms: _540  and  _541
REMARK  223  A    between atoms: _543  and  _545
REMARK  224  A    between atoms: _545  and  _546
REMARK  225  A    between atoms: _545  and  _548
REMARK  226  A    between atoms: _548  and  _549
REMARK  227  A    between atoms: _549  and  _550
REMARK  228  A    between atoms: _550  and  _551
REMARK  229  A    between atoms: _560  and  _562
REMARK  230  A    between atoms: _562  and  _563
REMARK  231  A    between atoms: _562  and  _565
REMARK  232  A    between atoms: _565  and  _566
REMARK                            x       y       z     vdW  Elec       q    Type
REMARK                         _______ _______ _______ _____ _____    ______ ____
ROOT
ATOM      1  O   HOH     1      21.075  -5.675   9.501  0.00  0.00    +0.000 OA
ENDROOT
TORSDOF 0
REMARK  Name = ../refined-set-2016/1kzk/1kzk_pocket.pdb
REMARK  232 active torsions:
REMARK  status: ('A' for Active; 'I' for Inactive)
REMARK    1  A    between atoms: _1  and  _3
REMARK    2  A    between atoms: _3  and  _4
REMARK    3  A    between atoms: _3  and  _6
REMARK    4  A    between atoms: _6  and  _7
REMARK    5  A    between atoms: _7  and  _8
REMARK    6  A    between atoms: _8  and  _9
REMARK    7  A    between atoms: _18  and  _20
REMARK    8  A    between atoms: _20  and  _21
REMARK    9  A    between atoms: _20  and  _23
REMARK   10  A    between atoms: _23  and  _24
REMARK   11  A    between atoms: _27  and  _29
REMARK   12  A    between atoms: _29  and  _30
REMARK   13  A    between atoms: _29  and  _32
REMARK   14  A    between atoms: _32  and  _33
REMARK   15  A    between atoms: _36  and  _38
REMARK   16  A    between atoms: _38  and  _39
REMARK   17  A    between atoms: _38  and  _41
REMARK   18  A    between atoms: _41  and  _42
REMARK   19  A    between atoms: _45  and  _47
REMARK   20  A    between atoms: _47  and  _48
REMARK   21  A    between atoms: _47  and  _50
REMARK   22  A    between atoms: _50  and  _51
REMARK   23  A    between atoms: _54  and  _56
REMARK   24  A    between atoms: _56  and  _57
REMARK   25  A    between atoms: _59  and  _61
REMARK   26  A    between atoms: _61  and  _62
REMARK   27  A    between atoms: _65  and  _67
REMARK   28  A    between atoms: _67  and  _68
REMARK   29  A    between atoms: _67  and  _70
REMARK   30  A    between atoms: _70  and  _71
REMARK   31  A    between atoms: _74  and  _76
REMARK   32  A    between atoms: _76  and  _77
REMARK   33  A    between atoms: _76  and  _79
REMARK   34  A    between atoms: _79  and  _80
REMARK   35  A    between atoms: _83  and  _85
REMARK   36  A    between atoms: _85  and  _86
REMARK   37  A    between atoms: _85  and  _88
REMARK   38  A    between atoms: _88  and  _89
REMARK   39  A    between atoms: _92  and  _94
REMARK   40  A    between atoms: _94  and  _95
REMARK   41  A    between atoms: _94  and  _97
REMARK   42  A    between atoms: _100  and  _102
REMARK   43  A    between atoms: _102  and  _103
REMARK   44  A    between atoms: _102  and  _105
REMARK   45  A    between atoms: _106  and  _107
REMARK   46  A    between atoms: _107  and  _108
REMARK   47  A    between atoms: _108  and  _109
REMARK   48  A    between atoms: _113  and  _115
REMARK   49  A    between atoms: _115  and  _116
REMARK   50  A    between atoms: _115  and  _118
REMARK   51  A    between atoms: _118  and  _119
REMARK   52  A    between atoms: _119  and  _120
REMARK   53  A    between atoms: _122  and  _124
REMARK   54  A    between atoms: _124  and  _125
REMARK   55  A    between atoms: _124  and  _127
REMARK   56  A    between atoms: _127  and  _128
REMARK   57  A    between atoms: _131  and  _133
REMARK   58  A    between atoms: _133  and  _134
REMARK   59  A    between atoms: _136  and  _138
REMARK   60  A    between atoms: _138  and  _139
REMARK   61  A    between atoms: _141  and  _143
REMARK   62  A    between atoms: _143  and  _144
REMARK   63  A    between atoms: _143  and  _146
REMARK   64  A    between atoms: _146  and  _147
REMARK   65  A    between atoms: _150  and  _152
REMARK   66  A    between atoms: _152  and  _153
REMARK   67  A    between atoms: _155  and  _157
REMARK   68  A    between atoms: _157  and  _158
REMARK   69  A    between atoms: _160  and  _162
REMARK   70  A    between atoms: _162  and  _163
REMARK   71  A    between atoms: _162  and  _165
REMARK   72  A    between atoms: _165  and  _166
REMARK   73  A    between atoms: _169  and  _171
REMARK   74  A    between atoms: _171  and  _172
REMARK   75  A    between atoms: _171  and  _174
REMARK   76  A    between atoms: _177  and  _179
REMARK   77  A    between atoms: _179  and  _180
REMARK   78  A    between atoms: _179  and  _182
REMARK   79  A    between atoms: _182  and  _183
REMARK   80  A    between atoms: _186  and  _188
REMARK   81  A    between atoms: _188  and  _189
REMARK   82  A    between atoms: _188  and  _191
REMARK   83  A    between atoms: _191  and  _192
REMARK   84  A    between atoms: _196  and  _197
REMARK   85  A    between atoms: _202  and  _204
REMARK   86  A    between atoms: _204  and  _205
REMARK   87  A    between atoms: _204  and  _207
REMARK   88  A    between atoms: _210  and  _212
REMARK   89  A    between atoms: _212  and  _213
REMARK   90  A    between atoms: _212  and  _215
REMARK   91  A    between atoms: _215  and  _216
REMARK   92  A    between atoms: _221  and  _223
REMARK   93  A    between atoms: _223  and  _224
REMARK   94  A    between atoms: _223  and  _226
REMARK   95  A    between atoms: _226  and  _227
REMARK   96  A    between atoms: _230  and  _232
REMARK   97  A    between atoms: _232  and  _233
REMARK   98  A    between atoms: _232  and  _235
REMARK   99  A    between atoms: _235  and  _236
REMARK  100  A    between atoms: _239  and  _241
REMARK  101  A    between atoms: _241  and  _242
REMARK  102  A    between atoms: _244  and  _246
REMARK  103  A    between atoms: _246  and  _247
REMARK  104  A    between atoms: _246  and  _249
REMARK  105  A    between atoms: _249  and  _250
REMARK  106  A    between atoms: _250  and  _251
REMARK  107  A    between atoms: _251  and  _252
REMARK  108  A    between atoms: _261  and  _263
REMARK  109  A    between atoms: _263  and  _264
REMARK  110  A    between atoms: _263  and  _266
REMARK  111  A    between atoms: _266  and  _267
REMARK  112  A    between atoms: _272  and  _274
REMARK  113  A    between atoms: _274  and  _275
REMARK  114  A    between atoms: _274  and  _277
REMARK  115  A    between atoms: _277  and  _278
REMARK  116  A    between atoms: _278  and  _279
REMARK  117  A    between atoms: _279  and  _280
REMARK  118  A    between atoms: _289  and  _291
REMARK  119  A    between atoms: _291  and  _292
REMARK  120  A    between atoms: _291  and  _294
REMARK  121  A    between atoms: _294  and  _295
REMARK  122  A    between atoms: _298  and  _300
REMARK  123  A    between atoms: _300  and  _301
REMARK  124  A    between atoms: _300  and  _303
REMARK  125  A    between atoms: _303  and  _304
REMARK  126  A    between atoms: _307  and  _309
REMARK  127  A    between atoms: _309  and  _310
REMARK  128  A    between atoms: _309  and  _312
REMARK  129  A    between atoms: _312  and  _313
REMARK  130  A    between atoms: _316  and  _318
REMARK  131  A    between atoms: _318  and  _319
REMARK  132  A    between atoms: _318  and  _321
REMARK  133  A    between atoms: _321  and  _322
REMARK  134  A    between atoms: _325  and  _327
REMARK  135  A    between atoms: _327  and  _328
REMARK  136  A    between atoms: _330  and  _332
REMARK  137  A    between atoms: _332  and  _333
REMARK  138  A    between atoms: _336  and  _338
REMARK  139  A    between atoms: _338  and  _339
REMARK  140  A    between atoms: _338  and  _341
REMARK  141  A    between atoms: _341  and  _342
REMARK  142  A    between atoms: _345  and  _347
REMARK  143  A    between atoms: _347  and  _348
REMARK  144  A    between atoms: _347  and  _350
REMARK  145  A    between atoms: _350  and  _351
REMARK  146  A    between atoms: _354  and  _356
REMARK  147  A    between atoms: _356  and  _357
REMARK  148  A    between atoms: _356  and  _359
REMARK  149  A    between atoms: _359  and  _360
REMARK  150  A    between atoms: _363  and  _365
REMARK  151  A    between atoms: _365  and  _366
REMARK  152  A    between atoms: _365  and  _368
REMARK  153  A    between atoms: _371  and  _373
REMARK  154  A    between atoms: _373  and  _374
REMARK  155  A    between atoms: _373  and  _376
REMARK  156  A    between atoms: _376  and  _377
REMARK  157  A    between atoms: _380  and  _382
REMARK  158  A    between atoms: _382  and  _383
REMARK  159  A    between atoms: _382  and  _385
REMARK  160  A    between atoms: _385  and  _386
REMARK  161  A    between atoms: _386  and  _387
REMARK  162  A    between atoms: _387  and  _388
REMARK  163  A    between atoms: _388  and  _389
REMARK  164  A    between atoms: _393  and  _395
REMARK  165  A    between atoms: _395  and  _396
REMARK  166  A    between atoms: _395  and  _398
REMARK  167  A    between atoms: _398  and  _399
REMARK  168  A    between atoms: _399  and  _400
REMARK  169  A    between atoms: _402  and  _404
REMARK  170  A    between atoms: _404  and  _405
REMARK  171  A    between atoms: _404  and  _407
REMARK  172  A    between atoms: _407  and  _408
REMARK  173  A    between atoms: _411  and  _413
REMARK  174  A    between atoms: _413  and  _414
REMARK  175  A    between atoms: _416  and  _418
REMARK  176  A    between atoms: _418  and  _419
REMARK  177  A    between atoms: _421  and  _423
REMARK  178  A    between atoms: _423  and  _424
REMARK  179  A    between atoms: _423  and  _426
REMARK  180  A    between atoms: _426  and  _427
REMARK  181  A    between atoms: _430  and  _432
REMARK  182  A    between atoms: _432  and  _433
REMARK  183  A    between atoms: _435  and  _437
REMARK  184  A    between atoms: _437  and  _438
REMARK  185  A    between atoms: _440  and  _442
REMARK  186  A    between atoms: _442  and  _443
REMARK  187  A    between atoms: _442  and  _445
REMARK  188  A    between atoms: _445  and  _446
REMARK  189  A    between atoms: _452  and  _454
REMARK  190  A    between atoms: _454  and  _455
REMARK  191  A    between atoms: _454  and  _457
REMARK  192  A    between atoms: _457  and  _458
REMARK  193  A    between atoms: _461  and  _463
REMARK  194  A    between atoms: _463  and  _464
REMARK  195  A    between atoms: _463  and  _466
REMARK  196  A    between atoms: _469  and  _471
REMARK  197  A    between atoms: _471  and  _472
REMARK  198  A    between atoms: _471  and  _474
REMARK  199  A    between atoms: _474  and  _475
REMARK  200  A    between atoms: _479  and  _480
REMARK  201  A    between atoms: _485  and  _487
REMARK  202  A    between atoms: _487  and  _488
REMARK  203  A    between atoms: _487  and  _490
REMARK  204  A    between atoms: _490  and  _491
REMARK  205  A    between atoms: _495  and  _496
REMARK  206  A    between atoms: _501  and  _503
REMARK  207  A    between atoms: _503  and  _504
REMARK  208  A    between atoms: _503  and  _506
REMARK  209  A    between atoms: _509  and  _511
REMARK  210  A    between atoms: _511  and  _512
REMARK  211  A    between atoms: _511  and  _514
REMARK  212  A    between atoms: _514  and  _515
REMARK  213  A    between atoms: _520  and  _522
REMARK  214  A    between atoms: _522  and  _523
REMARK  215  A    between atoms: _522  and  _525
REMARK  216  A    between atoms: _525  and  _526
REMARK  217  A    between atoms: _529  and  _531
REMARK  218  A    between atoms: _531  and  _532
REMARK  219  A    between atoms: _531  and  _534
REMARK  220  A    between atoms: _534  and  _535
REMARK  221  A    between atoms: _538  and  _540
REMARK  222  A    between atoms: _540  and  _541
REMARK  223  A    between atoms: _543  and  _545
REMARK  224  A    between atoms: _545  and  _546
REMARK  225  A    between atoms: _545  and  _548
REMARK  226  A    between atoms: _548  and  _549
REMARK  227  A    between atoms: _549  and  _550
REMARK  228  A    between atoms: _550  and  _551
REMARK  229  A    between atoms: _560  and  _562
REMARK  230  A    between atoms: _562  and  _563
REMARK  231  A    between atoms: _562  and  _565
REMARK  232  A    between atoms: _565  and  _566
REMARK                            x       y       z     vdW  Elec       q    Type
REMARK                         _______ _______ _______ _____ _____    ______ ____
ROOT
ATOM      1  O   HOH     1      25.958  -8.876   8.896  0.00  0.00    +0.000 OA
ENDROOT
TORSDOF 0
REMARK  Name = ../refined-set-2016/1kzk/1kzk_pocket.pdb
REMARK  232 active torsions:
REMARK  status: ('A' for Active; 'I' for Inactive)
REMARK    1  A    between atoms: _1  and  _3
REMARK    2  A    between atoms: _3  and  _4
REMARK    3  A    between atoms: _3  and  _6
REMARK    4  A    between atoms: _6  and  _7
REMARK    5  A    between atoms: _7  and  _8
REMARK    6  A    between atoms: _8  and  _9
REMARK    7  A    between atoms: _18  and  _20
REMARK    8  A    between atoms: _20  and  _21
REMARK    9  A    between atoms: _20  and  _23
REMARK   10  A    between atoms: _23  and  _24
REMARK   11  A    between atoms: _27  and  _29
REMARK   12  A    between atoms: _29  and  _30
REMARK   13  A    between atoms: _29  and  _32
REMARK   14  A    between atoms: _32  and  _33
REMARK   15  A    between atoms: _36  and  _38
REMARK   16  A    between atoms: _38  and  _39
REMARK   17  A    between atoms: _38  and  _41
REMARK   18  A    between atoms: _41  and  _42
REMARK   19  A    between atoms: _45  and  _47
REMARK   20  A    between atoms: _47  and  _48
REMARK   21  A    between atoms: _47  and  _50
REMARK   22  A    between atoms: _50  and  _51
REMARK   23  A    between atoms: _54  and  _56
REMARK   24  A    between atoms: _56  and  _57
REMARK   25  A    between atoms: _59  and  _61
REMARK   26  A    between atoms: _61  and  _62
REMARK   27  A    between atoms: _65  and  _67
REMARK   28  A    between atoms: _67  and  _68
REMARK   29  A    between atoms: _67  and  _70
REMARK   30  A    between atoms: _70  and  _71
REMARK   31  A    between atoms: _74  and  _76
REMARK   32  A    between atoms: _76  and  _77
REMARK   33  A    between atoms: _76  and  _79
REMARK   34  A    between atoms: _79  and  _80
REMARK   35  A    between atoms: _83  and  _85
REMARK   36  A    between atoms: _85  and  _86
REMARK   37  A    between atoms: _85  and  _88
REMARK   38  A    between atoms: _88  and  _89
REMARK   39  A    between atoms: _92  and  _94
REMARK   40  A    between atoms: _94  and  _95
REMARK   41  A    between atoms: _94  and  _97
REMARK   42  A    between atoms: _100  and  _102
REMARK   43  A    between atoms: _102  and  _103
REMARK   44  A    between atoms: _102  and  _105
REMARK   45  A    between atoms: _106  and  _107
REMARK   46  A    between atoms: _107  and  _108
REMARK   47  A    between atoms: _108  and  _109
REMARK   48  A    between atoms: _113  and  _115
REMARK   49  A    between atoms: _115  and  _116
REMARK   50  A    between atoms: _115  and  _118
REMARK   51  A    between atoms: _118  and  _119
REMARK   52  A    between atoms: _119  and  _120
REMARK   53  A    between atoms: _122  and  _124
REMARK   54  A    between atoms: _124  and  _125
REMARK   55  A    between atoms: _124  and  _127
REMARK   56  A    between atoms: _127  and  _128
REMARK   57  A    between atoms: _131  and  _133
REMARK   58  A    between atoms: _133  and  _134
REMARK   59  A    between atoms: _136  and  _138
REMARK   60  A    between atoms: _138  and  _139
REMARK   61  A    between atoms: _141  and  _143
REMARK   62  A    between atoms: _143  and  _144
REMARK   63  A    between atoms: _143  and  _146
REMARK   64  A    between atoms: _146  and  _147
REMARK   65  A    between atoms: _150  and  _152
REMARK   66  A    between atoms: _152  and  _153
REMARK   67  A    between atoms: _155  and  _157
REMARK   68  A    between atoms: _157  and  _158
REMARK   69  A    between atoms: _160  and  _162
REMARK   70  A    between atoms: _162  and  _163
REMARK   71  A    between atoms: _162  and  _165
REMARK   72  A    between atoms: _165  and  _166
REMARK   73  A    between atoms: _169  and  _171
REMARK   74  A    between atoms: _171  and  _172
REMARK   75  A    between atoms: _171  and  _174
REMARK   76  A    between atoms: _177  and  _179
REMARK   77  A    between atoms: _179  and  _180
REMARK   78  A    between atoms: _179  and  _182
REMARK   79  A    between atoms: _182  and  _183
REMARK   80  A    between atoms: _186  and  _188
REMARK   81  A    between atoms: _188  and  _189
REMARK   82  A    between atoms: _188  and  _191
REMARK   83  A    between atoms: _191  and  _192
REMARK   84  A    between atoms: _196  and  _197
REMARK   85  A    between atoms: _202  and  _204
REMARK   86  A    between atoms: _204  and  _205
REMARK   87  A    between atoms: _204  and  _207
REMARK   88  A    between atoms: _210  and  _212
REMARK   89  A    between atoms: _212  and  _213
REMARK   90  A    between atoms: _212  and  _215
REMARK   91  A    between atoms: _215  and  _216
REMARK   92  A    between atoms: _221  and  _223
REMARK   93  A    between atoms: _223  and  _224
REMARK   94  A    between atoms: _223  and  _226
REMARK   95  A    between atoms: _226  and  _227
REMARK   96  A    between atoms: _230  and  _232
REMARK   97  A    between atoms: _232  and  _233
REMARK   98  A    between atoms: _232  and  _235
REMARK   99  A    between atoms: _235  and  _236
REMARK  100  A    between atoms: _239  and  _241
REMARK  101  A    between atoms: _241  and  _242
REMARK  102  A    between atoms: _244  and  _246
REMARK  103  A    between atoms: _246  and  _247
REMARK  104  A    between atoms: _246  and  _249
REMARK  105  A    between atoms: _249  and  _250
REMARK  106  A    between atoms: _250  and  _251
REMARK  107  A    between atoms: _251  and  _252
REMARK  108  A    between atoms: _261  and  _263
REMARK  109  A    between atoms: _263  and  _264
REMARK  110  A    between atoms: _263  and  _266
REMARK  111  A    between atoms: _266  and  _267
REMARK  112  A    between atoms: _272  and  _274
REMARK  113  A    between atoms: _274  and  _275
REMARK  114  A    between atoms: _274  and  _277
REMARK  115  A    between atoms: _277  and  _278
REMARK  116  A    between atoms: _278  and  _279
REMARK  117  A    between atoms: _279  and  _280
REMARK  118  A    between atoms: _289  and  _291
REMARK  119  A    between atoms: _291  and  _292
REMARK  120  A    between atoms: _291  and  _294
REMARK  121  A    between atoms: _294  and  _295
REMARK  122  A    between atoms: _298  and  _300
REMARK  123  A    between atoms: _300  and  _301
REMARK  124  A    between atoms: _300  and  _303
REMARK  125  A    between atoms: _303  and  _304
REMARK  126  A    between atoms: _307  and  _309
REMARK  127  A    between atoms: _309  and  _310
REMARK  128  A    between atoms: _309  and  _312
REMARK  129  A    between atoms: _312  and  _313
REMARK  130  A    between atoms: _316  and  _318
REMARK  131  A    between atoms: _318  and  _319
REMARK  132  A    between atoms: _318  and  _321
REMARK  133  A    between atoms: _321  and  _322
REMARK  134  A    between atoms: _325  and  _327
REMARK  135  A    between atoms: _327  and  _328
REMARK  136  A    between atoms: _330  and  _332
REMARK  137  A    between atoms: _332  and  _333
REMARK  138  A    between atoms: _336  and  _338
REMARK  139  A    between atoms: _338  and  _339
REMARK  140  A    between atoms: _338  and  _341
REMARK  141  A    between atoms: _341  and  _342
REMARK  142  A    between atoms: _345  and  _347
REMARK  143  A    between atoms: _347  and  _348
REMARK  144  A    between atoms: _347  and  _350
REMARK  145  A    between atoms: _350  and  _351
REMARK  146  A    between atoms: _354  and  _356
REMARK  147  A    between atoms: _356  and  _357
REMARK  148  A    between atoms: _356  and  _359
REMARK  149  A    between atoms: _359  and  _360
REMARK  150  A    between atoms: _363  and  _365
REMARK  151  A    between atoms: _365  and  _366
REMARK  152  A    between atoms: _365  and  _368
REMARK  153  A    between atoms: _371  and  _373
REMARK  154  A    between atoms: _373  and  _374
REMARK  155  A    between atoms: _373  and  _376
REMARK  156  A    between atoms: _376  and  _377
REMARK  157  A    between atoms: _380  and  _382
REMARK  158  A    between atoms: _382  and  _383
REMARK  159  A    between atoms: _382  and  _385
REMARK  160  A    between atoms: _385  and  _386
REMARK  161  A    between atoms: _386  and  _387
REMARK  162  A    between atoms: _387  and  _388
REMARK  163  A    between atoms: _388  and  _389
REMARK  164  A    between atoms: _393  and  _395
REMARK  165  A    between atoms: _395  and  _396
REMARK  166  A    between atoms: _395  and  _398
REMARK  167  A    between atoms: _398  and  _399
REMARK  168  A    between atoms: _399  and  _400
REMARK  169  A    between atoms: _402  and  _404
REMARK  170  A    between atoms: _404  and  _405
REMARK  171  A    between atoms: _404  and  _407
REMARK  172  A    between atoms: _407  and  _408
REMARK  173  A    between atoms: _411  and  _413
REMARK  174  A    between atoms: _413  and  _414
REMARK  175  A    between atoms: _416  and  _418
REMARK  176  A    between atoms: _418  and  _419
REMARK  177  A    between atoms: _421  and  _423
REMARK  178  A    between atoms: _423  and  _424
REMARK  179  A    between atoms: _423  and  _426
REMARK  180  A    between atoms: _426  and  _427
REMARK  181  A    between atoms: _430  and  _432
REMARK  182  A    between atoms: _432  and  _433
REMARK  183  A    between atoms: _435  and  _437
REMARK  184  A    between atoms: _437  and  _438
REMARK  185  A    between atoms: _440  and  _442
REMARK  186  A    between atoms: _442  and  _443
REMARK  187  A    between atoms: _442  and  _445
REMARK  188  A    between atoms: _445  and  _446
REMARK  189  A    between atoms: _452  and  _454
REMARK  190  A    between atoms: _454  and  _455
REMARK  191  A    between atoms: _454  and  _457
REMARK  192  A    between atoms: _457  and  _458
REMARK  193  A    between atoms: _461  and  _463
REMARK  194  A    between atoms: _463  and  _464
REMARK  195  A    between atoms: _463  and  _466
REMARK  196  A    between atoms: _469  and  _471
REMARK  197  A    between atoms: _471  and  _472
REMARK  198  A    between atoms: _471  and  _474
REMARK  199  A    between atoms: _474  and  _475
REMARK  200  A    between atoms: _479  and  _480
REMARK  201  A    between atoms: _485  and  _487
REMARK  202  A    between atoms: _487  and  _488
REMARK  203  A    between atoms: _487  and  _490
REMARK  204  A    between atoms: _490  and  _491
REMARK  205  A    between atoms: _495  and  _496
REMARK  206  A    between atoms: _501  and  _503
REMARK  207  A    between atoms: _503  and  _504
REMARK  208  A    between atoms: _503  and  _506
REMARK  209  A    between atoms: _509  and  _511
REMARK  210  A    between atoms: _511  and  _512
REMARK  211  A    between atoms: _511  and  _514
REMARK  212  A    between atoms: _514  and  _515
REMARK  213  A    between atoms: _520  and  _522
REMARK  214  A    between atoms: _522  and  _523
REMARK  215  A    between atoms: _522  and  _525
REMARK  216  A    between atoms: _525  and  _526
REMARK  217  A    between atoms: _529  and  _531
REMARK  218  A    between atoms: _531  and  _532
REMARK  219  A    between atoms: _531  and  _534
REMARK  220  A    between atoms: _534  and  _535
REMARK  221  A    between atoms: _538  and  _540
REMARK  222  A    between atoms: _540  and  _541
REMARK  223  A    between atoms: _543  and  _545
REMARK  224  A    between atoms: _545  and  _546
REMARK  225  A    between atoms: _545  and  _548
REMARK  226  A    between atoms: _548  and  _549
REMARK  227  A    between atoms: _549  and  _550
REMARK  228  A    between atoms: _550  and  _551
REMARK  229  A    between atoms: _560  and  _562
REMARK  230  A    between atoms: _562  and  _563
REMARK  231  A    between atoms: _562  and  _565
REMARK  232  A    between atoms: _565  and  _566
REMARK                            x       y       z     vdW  Elec       q    Type
REMARK                         _______ _______ _______ _____ _____    ______ ____
ROOT
ATOM      1  O   HOH     1      23.241  -9.937  13.403  0.00  0.00    +0.000 OA
ENDROOT
TORSDOF 0
REMARK  Name = ../refined-set-2016/1kzk/1kzk_pocket.pdb
REMARK  232 active torsions:
REMARK  status: ('A' for Active; 'I' for Inactive)
REMARK    1  A    between atoms: _1  and  _3
REMARK    2  A    between atoms: _3  and  _4
REMARK    3  A    between atoms: _3  and  _6
REMARK    4  A    between atoms: _6  and  _7
REMARK    5  A    between atoms: _7  and  _8
REMARK    6  A    between atoms: _8  and  _9
REMARK    7  A    between atoms: _18  and  _20
REMARK    8  A    between atoms: _20  and  _21
REMARK    9  A    between atoms: _20  and  _23
REMARK   10  A    between atoms: _23  and  _24
REMARK   11  A    between atoms: _27  and  _29
REMARK   12  A    between atoms: _29  and  _30
REMARK   13  A    between atoms: _29  and  _32
REMARK   14  A    between atoms: _32  and  _33
REMARK   15  A    between atoms: _36  and  _38
REMARK   16  A    between atoms: _38  and  _39
REMARK   17  A    between atoms: _38  and  _41
REMARK   18  A    between atoms: _41  and  _42
REMARK   19  A    between atoms: _45  and  _47
REMARK   20  A    between atoms: _47  and  _48
REMARK   21  A    between atoms: _47  and  _50
REMARK   22  A    between atoms: _50  and  _51
REMARK   23  A    between atoms: _54  and  _56
REMARK   24  A    between atoms: _56  and  _57
REMARK   25  A    between atoms: _59  and  _61
REMARK   26  A    between atoms: _61  and  _62
REMARK   27  A    between atoms: _65  and  _67
REMARK   28  A    between atoms: _67  and  _68
REMARK   29  A    between atoms: _67  and  _70
REMARK   30  A    between atoms: _70  and  _71
REMARK   31  A    between atoms: _74  and  _76
REMARK   32  A    between atoms: _76  and  _77
REMARK   33  A    between atoms: _76  and  _79
REMARK   34  A    between atoms: _79  and  _80
REMARK   35  A    between atoms: _83  and  _85
REMARK   36  A    between atoms: _85  and  _86
REMARK   37  A    between atoms: _85  and  _88
REMARK   38  A    between atoms: _88  and  _89
REMARK   39  A    between atoms: _92  and  _94
REMARK   40  A    between atoms: _94  and  _95
REMARK   41  A    between atoms: _94  and  _97
REMARK   42  A    between atoms: _100  and  _102
REMARK   43  A    between atoms: _102  and  _103
REMARK   44  A    between atoms: _102  and  _105
REMARK   45  A    between atoms: _106  and  _107
REMARK   46  A    between atoms: _107  and  _108
REMARK   47  A    between atoms: _108  and  _109
REMARK   48  A    between atoms: _113  and  _115
REMARK   49  A    between atoms: _115  and  _116
REMARK   50  A    between atoms: _115  and  _118
REMARK   51  A    between atoms: _118  and  _119
REMARK   52  A    between atoms: _119  and  _120
REMARK   53  A    between atoms: _122  and  _124
REMARK   54  A    between atoms: _124  and  _125
REMARK   55  A    between atoms: _124  and  _127
REMARK   56  A    between atoms: _127  and  _128
REMARK   57  A    between atoms: _131  and  _133
REMARK   58  A    between atoms: _133  and  _134
REMARK   59  A    between atoms: _136  and  _138
REMARK   60  A    between atoms: _138  and  _139
REMARK   61  A    between atoms: _141  and  _143
REMARK   62  A    between atoms: _143  and  _144
REMARK   63  A    between atoms: _143  and  _146
REMARK   64  A    between atoms: _146  and  _147
REMARK   65  A    between atoms: _150  and  _152
REMARK   66  A    between atoms: _152  and  _153
REMARK   67  A    between atoms: _155  and  _157
REMARK   68  A    between atoms: _157  and  _158
REMARK   69  A    between atoms: _160  and  _162
REMARK   70  A    between atoms: _162  and  _163
REMARK   71  A    between atoms: _162  and  _165
REMARK   72  A    between atoms: _165  and  _166
REMARK   73  A    between atoms: _169  and  _171
REMARK   74  A    between atoms: _171  and  _172
REMARK   75  A    between atoms: _171  and  _174
REMARK   76  A    between atoms: _177  and  _179
REMARK   77  A    between atoms: _179  and  _180
REMARK   78  A    between atoms: _179  and  _182
REMARK   79  A    between atoms: _182  and  _183
REMARK   80  A    between atoms: _186  and  _188
REMARK   81  A    between atoms: _188  and  _189
REMARK   82  A    between atoms: _188  and  _191
REMARK   83  A    between atoms: _191  and  _192
REMARK   84  A    between atoms: _196  and  _197
REMARK   85  A    between atoms: _202  and  _204
REMARK   86  A    between atoms: _204  and  _205
REMARK   87  A    between atoms: _204  and  _207
REMARK   88  A    between atoms: _210  and  _212
REMARK   89  A    between atoms: _212  and  _213
REMARK   90  A    between atoms: _212  and  _215
REMARK   91  A    between atoms: _215  and  _216
REMARK   92  A    between atoms: _221  and  _223
REMARK   93  A    between atoms: _223  and  _224
REMARK   94  A    between atoms: _223  and  _226
REMARK   95  A    between atoms: _226  and  _227
REMARK   96  A    between atoms: _230  and  _232
REMARK   97  A    between atoms: _232  and  _233
REMARK   98  A    between atoms: _232  and  _235
REMARK   99  A    between atoms: _235  and  _236
REMARK  100  A    between atoms: _239  and  _241
REMARK  101  A    between atoms: _241  and  _242
REMARK  102  A    between atoms: _244  and  _246
REMARK  103  A    between atoms: _246  and  _247
REMARK  104  A    between atoms: _246  and  _249
REMARK  105  A    between atoms: _249  and  _250
REMARK  106  A    between atoms: _250  and  _251
REMARK  107  A    between atoms: _251  and  _252
REMARK  108  A    between atoms: _261  and  _263
REMARK  109  A    between atoms: _263  and  _264
REMARK  110  A    between atoms: _263  and  _266
REMARK  111  A    between atoms: _266  and  _267
REMARK  112  A    between atoms: _272  and  _274
REMARK  113  A    between atoms: _274  and  _275
REMARK  114  A    between atoms: _274  and  _277
REMARK  115  A    between atoms: _277  and  _278
REMARK  116  A    between atoms: _278  and  _279
REMARK  117  A    between atoms: _279  and  _280
REMARK  118  A    between atoms: _289  and  _291
REMARK  119  A    between atoms: _291  and  _292
REMARK  120  A    between atoms: _291  and  _294
REMARK  121  A    between atoms: _294  and  _295
REMARK  122  A    between atoms: _298  and  _300
REMARK  123  A    between atoms: _300  and  _301
REMARK  124  A    between atoms: _300  and  _303
REMARK  125  A    between atoms: _303  and  _304
REMARK  126  A    between atoms: _307  and  _309
REMARK  127  A    between atoms: _309  and  _310
REMARK  128  A    between atoms: _309  and  _312
REMARK  129  A    between atoms: _312  and  _313
REMARK  130  A    between atoms: _316  and  _318
REMARK  131  A    between atoms: _318  and  _319
REMARK  132  A    between atoms: _318  and  _321
REMARK  133  A    between atoms: _321  and  _322
REMARK  134  A    between atoms: _325  and  _327
REMARK  135  A    between atoms: _327  and  _328
REMARK  136  A    between atoms: _330  and  _332
REMARK  137  A    between atoms: _332  and  _333
REMARK  138  A    between atoms: _336  and  _338
REMARK  139  A    between atoms: _338  and  _339
REMARK  140  A    between atoms: _338  and  _341
REMARK  141  A    between atoms: _341  and  _342
REMARK  142  A    between atoms: _345  and  _347
REMARK  143  A    between atoms: _347  and  _348
REMARK  144  A    between atoms: _347  and  _350
REMARK  145  A    between atoms: _350  and  _351
REMARK  146  A    between atoms: _354  and  _356
REMARK  147  A    between atoms: _356  and  _357
REMARK  148  A    between atoms: _356  and  _359
REMARK  149  A    between atoms: _359  and  _360
REMARK  150  A    between atoms: _363  and  _365
REMARK  151  A    between atoms: _365  and  _366
REMARK  152  A    between atoms: _365  and  _368
REMARK  153  A    between atoms: _371  and  _373
REMARK  154  A    between atoms: _373  and  _374
REMARK  155  A    between atoms: _373  and  _376
REMARK  156  A    between atoms: _376  and  _377
REMARK  157  A    between atoms: _380  and  _382
REMARK  158  A    between atoms: _382  and  _383
REMARK  159  A    between atoms: _382  and  _385
REMARK  160  A    between atoms: _385  and  _386
REMARK  161  A    between atoms: _386  and  _387
REMARK  162  A    between atoms: _387  and  _388
REMARK  163  A    between atoms: _388  and  _389
REMARK  164  A    between atoms: _393  and  _395
REMARK  165  A    between atoms: _395  and  _396
REMARK  166  A    between atoms: _395  and  _398
REMARK  167  A    between atoms: _398  and  _399
REMARK  168  A    between atoms: _399  and  _400
REMARK  169  A    between atoms: _402  and  _404
REMARK  170  A    between atoms: _404  and  _405
REMARK  171  A    between atoms: _404  and  _407
REMARK  172  A    between atoms: _407  and  _408
REMARK  173  A    between atoms: _411  and  _413
REMARK  174  A    between atoms: _413  and  _414
REMARK  175  A    between atoms: _416  and  _418
REMARK  176  A    between atoms: _418  and  _419
REMARK  177  A    between atoms: _421  and  _423
REMARK  178  A    between atoms: _423  and  _424
REMARK  179  A    between atoms: _423  and  _426
REMARK  180  A    between atoms: _426  and  _427
REMARK  181  A    between atoms: _430  and  _432
REMARK  182  A    between atoms: _432  and  _433
REMARK  183  A    between atoms: _435  and  _437
REMARK  184  A    between atoms: _437  and  _438
REMARK  185  A    between atoms: _440  and  _442
REMARK  186  A    between atoms: _442  and  _443
REMARK  187  A    between atoms: _442  and  _445
REMARK  188  A    between atoms: _445  and  _446
REMARK  189  A    between atoms: _452  and  _454
REMARK  190  A    between atoms: _454  and  _455
REMARK  191  A    between atoms: _454  and  _457
REMARK  192  A    between atoms: _457  and  _458
REMARK  193  A    between atoms: _461  and  _463
REMARK  194  A    between atoms: _463  and  _464
REMARK  195  A    between atoms: _463  and  _466
REMARK  196  A    between atoms: _469  and  _471
REMARK  197  A    between atoms: _471  and  _472
REMARK  198  A    between atoms: _471  and  _474
REMARK  199  A    between atoms: _474  and  _475
REMARK  200  A    between atoms: _479  and  _480
REMARK  201  A    between atoms: _485  and  _487
REMARK  202  A    between atoms: _487  and  _488
REMARK  203  A    between atoms: _487  and  _490
REMARK  204  A    between atoms: _490  and  _491
REMARK  205  A    between atoms: _495  and  _496
REMARK  206  A    between atoms: _501  and  _503
REMARK  207  A    between atoms: _503  and  _504
REMARK  208  A    between atoms: _503  and  _506
REMARK  209  A    between atoms: _509  and  _511
REMARK  210  A    between atoms: _511  and  _512
REMARK  211  A    between atoms: _511  and  _514
REMARK  212  A    between atoms: _514  and  _515
REMARK  213  A    between atoms: _520  and  _522
REMARK  214  A    between atoms: _522  and  _523
REMARK  215  A    between atoms: _522  and  _525
REMARK  216  A    between atoms: _525  and  _526
REMARK  217  A    between atoms: _529  and  _531
REMARK  218  A    between atoms: _531  and  _532
REMARK  219  A    between atoms: _531  and  _534
REMARK  220  A    between atoms: _534  and  _535
REMARK  221  A    between atoms: _538  and  _540
REMARK  222  A    between atoms: _540  and  _541
REMARK  223  A    between atoms: _543  and  _545
REMARK  224  A    between atoms: _545  and  _546
REMARK  225  A    between atoms: _545  and  _548
REMARK  226  A    between atoms: _548  and  _549
REMARK  227  A    between atoms: _549  and  _550
REMARK  228  A    between atoms: _550  and  _551
REMARK  229  A    between atoms: _560  and  _562
REMARK  230  A    between atoms: _562  and  _563
REMARK  231  A    between atoms: _562  and  _565
REMARK  232  A    between atoms: _565  and  _566
REMARK                            x       y       z     vdW  Elec       q    Type
REMARK                         _______ _______ _______ _____ _____    ______ ____
ROOT
ATOM      1  O   HOH     1      25.159  -8.011  22.590  0.00  0.00    +0.000 OA
ENDROOT
TORSDOF 0
REMARK  Name = ../refined-set-2016/1kzk/1kzk_pocket.pdb
REMARK  232 active torsions:
REMARK  status: ('A' for Active; 'I' for Inactive)
REMARK    1  A    between atoms: _1  and  _3
REMARK    2  A    between atoms: _3  and  _4
REMARK    3  A    between atoms: _3  and  _6
REMARK    4  A    between atoms: _6  and  _7
REMARK    5  A    between atoms: _7  and  _8
REMARK    6  A    between atoms: _8  and  _9
REMARK    7  A    between atoms: _18  and  _20
REMARK    8  A    between atoms: _20  and  _21
REMARK    9  A    between atoms: _20  and  _23
REMARK   10  A    between atoms: _23  and  _24
REMARK   11  A    between atoms: _27  and  _29
REMARK   12  A    between atoms: _29  and  _30
REMARK   13  A    between atoms: _29  and  _32
REMARK   14  A    between atoms: _32  and  _33
REMARK   15  A    between atoms: _36  and  _38
REMARK   16  A    between atoms: _38  and  _39
REMARK   17  A    between atoms: _38  and  _41
REMARK   18  A    between atoms: _41  and  _42
REMARK   19  A    between atoms: _45  and  _47
REMARK   20  A    between atoms: _47  and  _48
REMARK   21  A    between atoms: _47  and  _50
REMARK   22  A    between atoms: _50  and  _51
REMARK   23  A    between atoms: _54  and  _56
REMARK   24  A    between atoms: _56  and  _57
REMARK   25  A    between atoms: _59  and  _61
REMARK   26  A    between atoms: _61  and  _62
REMARK   27  A    between atoms: _65  and  _67
REMARK   28  A    between atoms: _67  and  _68
REMARK   29  A    between atoms: _67  and  _70
REMARK   30  A    between atoms: _70  and  _71
REMARK   31  A    between atoms: _74  and  _76
REMARK   32  A    between atoms: _76  and  _77
REMARK   33  A    between atoms: _76  and  _79
REMARK   34  A    between atoms: _79  and  _80
REMARK   35  A    between atoms: _83  and  _85
REMARK   36  A    between atoms: _85  and  _86
REMARK   37  A    between atoms: _85  and  _88
REMARK   38  A    between atoms: _88  and  _89
REMARK   39  A    between atoms: _92  and  _94
REMARK   40  A    between atoms: _94  and  _95
REMARK   41  A    between atoms: _94  and  _97
REMARK   42  A    between atoms: _100  and  _102
REMARK   43  A    between atoms: _102  and  _103
REMARK   44  A    between atoms: _102  and  _105
REMARK   45  A    between atoms: _106  and  _107
REMARK   46  A    between atoms: _107  and  _108
REMARK   47  A    between atoms: _108  and  _109
REMARK   48  A    between atoms: _113  and  _115
REMARK   49  A    between atoms: _115  and  _116
REMARK   50  A    between atoms: _115  and  _118
REMARK   51  A    between atoms: _118  and  _119
REMARK   52  A    between atoms: _119  and  _120
REMARK   53  A    between atoms: _122  and  _124
REMARK   54  A    between atoms: _124  and  _125
REMARK   55  A    between atoms: _124  and  _127
REMARK   56  A    between atoms: _127  and  _128
REMARK   57  A    between atoms: _131  and  _133
REMARK   58  A    between atoms: _133  and  _134
REMARK   59  A    between atoms: _136  and  _138
REMARK   60  A    between atoms: _138  and  _139
REMARK   61  A    between atoms: _141  and  _143
REMARK   62  A    between atoms: _143  and  _144
REMARK   63  A    between atoms: _143  and  _146
REMARK   64  A    between atoms: _146  and  _147
REMARK   65  A    between atoms: _150  and  _152
REMARK   66  A    between atoms: _152  and  _153
REMARK   67  A    between atoms: _155  and  _157
REMARK   68  A    between atoms: _157  and  _158
REMARK   69  A    between atoms: _160  and  _162
REMARK   70  A    between atoms: _162  and  _163
REMARK   71  A    between atoms: _162  and  _165
REMARK   72  A    between atoms: _165  and  _166
REMARK   73  A    between atoms: _169  and  _171
REMARK   74  A    between atoms: _171  and  _172
REMARK   75  A    between atoms: _171  and  _174
REMARK   76  A    between atoms: _177  and  _179
REMARK   77  A    between atoms: _179  and  _180
REMARK   78  A    between atoms: _179  and  _182
REMARK   79  A    between atoms: _182  and  _183
REMARK   80  A    between atoms: _186  and  _188
REMARK   81  A    between atoms: _188  and  _189
REMARK   82  A    between atoms: _188  and  _191
REMARK   83  A    between atoms: _191  and  _192
REMARK   84  A    between atoms: _196  and  _197
REMARK   85  A    between atoms: _202  and  _204
REMARK   86  A    between atoms: _204  and  _205
REMARK   87  A    between atoms: _204  and  _207
REMARK   88  A    between atoms: _210  and  _212
REMARK   89  A    between atoms: _212  and  _213
REMARK   90  A    between atoms: _212  and  _215
REMARK   91  A    between atoms: _215  and  _216
REMARK   92  A    between atoms: _221  and  _223
REMARK   93  A    between atoms: _223  and  _224
REMARK   94  A    between atoms: _223  and  _226
REMARK   95  A    between atoms: _226  and  _227
REMARK   96  A    between atoms: _230  and  _232
REMARK   97  A    between atoms: _232  and  _233
REMARK   98  A    between atoms: _232  and  _235
REMARK   99  A    between atoms: _235  and  _236
REMARK  100  A    between atoms: _239  and  _241
REMARK  101  A    between atoms: _241  and  _242
REMARK  102  A    between atoms: _244  and  _246
REMARK  103  A    between atoms: _246  and  _247
REMARK  104  A    between atoms: _246  and  _249
REMARK  105  A    between atoms: _249  and  _250
REMARK  106  A    between atoms: _250  and  _251
REMARK  107  A    between atoms: _251  and  _252
REMARK  108  A    between atoms: _261  and  _263
REMARK  109  A    between atoms: _263  and  _264
REMARK  110  A    between atoms: _263  and  _266
REMARK  111  A    between atoms: _266  and  _267
REMARK  112  A    between atoms: _272  and  _274
REMARK  113  A    between atoms: _274  and  _275
REMARK  114  A    between atoms: _274  and  _277
REMARK  115  A    between atoms: _277  and  _278
REMARK  116  A    between atoms: _278  and  _279
REMARK  117  A    between atoms: _279  and  _280
REMARK  118  A    between atoms: _289  and  _291
REMARK  119  A    between atoms: _291  and  _292
REMARK  120  A    between atoms: _291  and  _294
REMARK  121  A    between atoms: _294  and  _295
REMARK  122  A    between atoms: _298  and  _300
REMARK  123  A    between atoms: _300  and  _301
REMARK  124  A    between atoms: _300  and  _303
REMARK  125  A    between atoms: _303  and  _304
REMARK  126  A    between atoms: _307  and  _309
REMARK  127  A    between atoms: _309  and  _310
REMARK  128  A    between atoms: _309  and  _312
REMARK  129  A    between atoms: _312  and  _313
REMARK  130  A    between atoms: _316  and  _318
REMARK  131  A    between atoms: _318  and  _319
REMARK  132  A    between atoms: _318  and  _321
REMARK  133  A    between atoms: _321  and  _322
REMARK  134  A    between atoms: _325  and  _327
REMARK  135  A    between atoms: _327  and  _328
REMARK  136  A    between atoms: _330  and  _332
REMARK  137  A    between atoms: _332  and  _333
REMARK  138  A    between atoms: _336  and  _338
REMARK  139  A    between atoms: _338  and  _339
REMARK  140  A    between atoms: _338  and  _341
REMARK  141  A    between atoms: _341  and  _342
REMARK  142  A    between atoms: _345  and  _347
REMARK  143  A    between atoms: _347  and  _348
REMARK  144  A    between atoms: _347  and  _350
REMARK  145  A    between atoms: _350  and  _351
REMARK  146  A    between atoms: _354  and  _356
REMARK  147  A    between atoms: _356  and  _357
REMARK  148  A    between atoms: _356  and  _359
REMARK  149  A    between atoms: _359  and  _360
REMARK  150  A    between atoms: _363  and  _365
REMARK  151  A    between atoms: _365  and  _366
REMARK  152  A    between atoms: _365  and  _368
REMARK  153  A    between atoms: _371  and  _373
REMARK  154  A    between atoms: _373  and  _374
REMARK  155  A    between atoms: _373  and  _376
REMARK  156  A    between atoms: _376  and  _377
REMARK  157  A    between atoms: _380  and  _382
REMARK  158  A    between atoms: _382  and  _383
REMARK  159  A    between atoms: _382  and  _385
REMARK  160  A    between atoms: _385  and  _386
REMARK  161  A    between atoms: _386  and  _387
REMARK  162  A    between atoms: _387  and  _388
REMARK  163  A    between atoms: _388  and  _389
REMARK  164  A    between atoms: _393  and  _395
REMARK  165  A    between atoms: _395  and  _396
REMARK  166  A    between atoms: _395  and  _398
REMARK  167  A    between atoms: _398  and  _399
REMARK  168  A    between atoms: _399  and  _400
REMARK  169  A    between atoms: _402  and  _404
REMARK  170  A    between atoms: _404  and  _405
REMARK  171  A    between atoms: _404  and  _407
REMARK  172  A    between atoms: _407  and  _408
REMARK  173  A    between atoms: _411  and  _413
REMARK  174  A    between atoms: _413  and  _414
REMARK  175  A    between atoms: _416  and  _418
REMARK  176  A    between atoms: _418  and  _419
REMARK  177  A    between atoms: _421  and  _423
REMARK  178  A    between atoms: _423  and  _424
REMARK  179  A    between atoms: _423  and  _426
REMARK  180  A    between atoms: _426  and  _427
REMARK  181  A    between atoms: _430  and  _432
REMARK  182  A    between atoms: _432  and  _433
REMARK  183  A    between atoms: _435  and  _437
REMARK  184  A    between atoms: _437  and  _438
REMARK  185  A    between atoms: _440  and  _442
REMARK  186  A    between atoms: _442  and  _443
REMARK  187  A    between atoms: _442  and  _445
REMARK  188  A    between atoms: _445  and  _446
REMARK  189  A    between atoms: _452  and  _454
REMARK  190  A    between atoms: _454  and  _455
REMARK  191  A    between atoms: _454  and  _457
REMARK  192  A    between atoms: _457  and  _458
REMARK  193  A    between atoms: _461  and  _463
REMARK  194  A    between atoms: _463  and  _464
REMARK  195  A    between atoms: _463  and  _466
REMARK  196  A    between atoms: _469  and  _471
REMARK  197  A    between atoms: _471  and  _472
REMARK  198  A    between atoms: _471  and  _474
REMARK  199  A    between atoms: _474  and  _475
REMARK  200  A    between atoms: _479  and  _480
REMARK  201  A    between atoms: _485  and  _487
REMARK  202  A    between atoms: _487  and  _488
REMARK  203  A    between atoms: _487  and  _490
REMARK  204  A    between atoms: _490  and  _491
REMARK  205  A    between atoms: _495  and  _496
REMARK  206  A    between atoms: _501  and  _503
REMARK  207  A    between atoms: _503  and  _504
REMARK  208  A    between atoms: _503  and  _506
REMARK  209  A    between atoms: _509  and  _511
REMARK  210  A    between atoms: _511  and  _512
REMARK  211  A    between atoms: _511  and  _514
REMARK  212  A    between atoms: _514  and  _515
REMARK  213  A    between atoms: _520  and  _522
REMARK  214  A    between atoms: _522  and  _523
REMARK  215  A    between atoms: _522  and  _525
REMARK  216  A    between atoms: _525  and  _526
REMARK  217  A    between atoms: _529  and  _531
REMARK  218  A    between atoms: _531  and  _532
REMARK  219  A    between atoms: _531  and  _534
REMARK  220  A    between atoms: _534  and  _535
REMARK  221  A    between atoms: _538  and  _540
REMARK  222  A    between atoms: _540  and  _541
REMARK  223  A    between atoms: _543  and  _545
REMARK  224  A    between atoms: _545  and  _546
REMARK  225  A    between atoms: _545  and  _548
REMARK  226  A    between atoms: _548  and  _549
REMARK  227  A    between atoms: _549  and  _550
REMARK  228  A    between atoms: _550  and  _551
REMARK  229  A    between atoms: _560  and  _562
REMARK  230  A    between atoms: _562  and  _563
REMARK  231  A    between atoms: _562  and  _565
REMARK  232  A    between atoms: _565  and  _566
REMARK                            x       y       z     vdW  Elec       q    Type
REMARK                         _______ _______ _______ _____ _____    ______ ____
ROOT
ATOM      1  O   HOH     1      18.128   2.412  24.824  0.00  0.00    +0.000 OA
ENDROOT
TORSDOF 0
REMARK  Name = ../refined-set-2016/1kzk/1kzk_pocket.pdb
REMARK  232 active torsions:
REMARK  status: ('A' for Active; 'I' for Inactive)
REMARK    1  A    between atoms: _1  and  _3
REMARK    2  A    between atoms: _3  and  _4
REMARK    3  A    between atoms: _3  and  _6
REMARK    4  A    between atoms: _6  and  _7
REMARK    5  A    between atoms: _7  and  _8
REMARK    6  A    between atoms: _8  and  _9
REMARK    7  A    between atoms: _18  and  _20
REMARK    8  A    between atoms: _20  and  _21
REMARK    9  A    between atoms: _20  and  _23
REMARK   10  A    between atoms: _23  and  _24
REMARK   11  A    between atoms: _27  and  _29
REMARK   12  A    between atoms: _29  and  _30
REMARK   13  A    between atoms: _29  and  _32
REMARK   14  A    between atoms: _32  and  _33
REMARK   15  A    between atoms: _36  and  _38
REMARK   16  A    between atoms: _38  and  _39
REMARK   17  A    between atoms: _38  and  _41
REMARK   18  A    between atoms: _41  and  _42
REMARK   19  A    between atoms: _45  and  _47
REMARK   20  A    between atoms: _47  and  _48
REMARK   21  A    between atoms: _47  and  _50
REMARK   22  A    between atoms: _50  and  _51
REMARK   23  A    between atoms: _54  and  _56
REMARK   24  A    between atoms: _56  and  _57
REMARK   25  A    between atoms: _59  and  _61
REMARK   26  A    between atoms: _61  and  _62
REMARK   27  A    between atoms: _65  and  _67
REMARK   28  A    between atoms: _67  and  _68
REMARK   29  A    between atoms: _67  and  _70
REMARK   30  A    between atoms: _70  and  _71
REMARK   31  A    between atoms: _74  and  _76
REMARK   32  A    between atoms: _76  and  _77
REMARK   33  A    between atoms: _76  and  _79
REMARK   34  A    between atoms: _79  and  _80
REMARK   35  A    between atoms: _83  and  _85
REMARK   36  A    between atoms: _85  and  _86
REMARK   37  A    between atoms: _85  and  _88
REMARK   38  A    between atoms: _88  and  _89
REMARK   39  A    between atoms: _92  and  _94
REMARK   40  A    between atoms: _94  and  _95
REMARK   41  A    between atoms: _94  and  _97
REMARK   42  A    between atoms: _100  and  _102
REMARK   43  A    between atoms: _102  and  _103
REMARK   44  A    between atoms: _102  and  _105
REMARK   45  A    between atoms: _106  and  _107
REMARK   46  A    between atoms: _107  and  _108
REMARK   47  A    between atoms: _108  and  _109
REMARK   48  A    between atoms: _113  and  _115
REMARK   49  A    between atoms: _115  and  _116
REMARK   50  A    between atoms: _115  and  _118
REMARK   51  A    between atoms: _118  and  _119
REMARK   52  A    between atoms: _119  and  _120
REMARK   53  A    between atoms: _122  and  _124
REMARK   54  A    between atoms: _124  and  _125
REMARK   55  A    between atoms: _124  and  _127
REMARK   56  A    between atoms: _127  and  _128
REMARK   57  A    between atoms: _131  and  _133
REMARK   58  A    between atoms: _133  and  _134
REMARK   59  A    between atoms: _136  and  _138
REMARK   60  A    between atoms: _138  and  _139
REMARK   61  A    between atoms: _141  and  _143
REMARK   62  A    between atoms: _143  and  _144
REMARK   63  A    between atoms: _143  and  _146
REMARK   64  A    between atoms: _146  and  _147
REMARK   65  A    between atoms: _150  and  _152
REMARK   66  A    between atoms: _152  and  _153
REMARK   67  A    between atoms: _155  and  _157
REMARK   68  A    between atoms: _157  and  _158
REMARK   69  A    between atoms: _160  and  _162
REMARK   70  A    between atoms: _162  and  _163
REMARK   71  A    between atoms: _162  and  _165
REMARK   72  A    between atoms: _165  and  _166
REMARK   73  A    between atoms: _169  and  _171
REMARK   74  A    between atoms: _171  and  _172
REMARK   75  A    between atoms: _171  and  _174
REMARK   76  A    between atoms: _177  and  _179
REMARK   77  A    between atoms: _179  and  _180
REMARK   78  A    between atoms: _179  and  _182
REMARK   79  A    between atoms: _182  and  _183
REMARK   80  A    between atoms: _186  and  _188
REMARK   81  A    between atoms: _188  and  _189
REMARK   82  A    between atoms: _188  and  _191
REMARK   83  A    between atoms: _191  and  _192
REMARK   84  A    between atoms: _196  and  _197
REMARK   85  A    between atoms: _202  and  _204
REMARK   86  A    between atoms: _204  and  _205
REMARK   87  A    between atoms: _204  and  _207
REMARK   88  A    between atoms: _210  and  _212
REMARK   89  A    between atoms: _212  and  _213
REMARK   90  A    between atoms: _212  and  _215
REMARK   91  A    between atoms: _215  and  _216
REMARK   92  A    between atoms: _221  and  _223
REMARK   93  A    between atoms: _223  and  _224
REMARK   94  A    between atoms: _223  and  _226
REMARK   95  A    between atoms: _226  and  _227
REMARK   96  A    between atoms: _230  and  _232
REMARK   97  A    between atoms: _232  and  _233
REMARK   98  A    between atoms: _232  and  _235
REMARK   99  A    between atoms: _235  and  _236
REMARK  100  A    between atoms: _239  and  _241
REMARK  101  A    between atoms: _241  and  _242
REMARK  102  A    between atoms: _244  and  _246
REMARK  103  A    between atoms: _246  and  _247
REMARK  104  A    between atoms: _246  and  _249
REMARK  105  A    between atoms: _249  and  _250
REMARK  106  A    between atoms: _250  and  _251
REMARK  107  A    between atoms: _251  and  _252
REMARK  108  A    between atoms: _261  and  _263
REMARK  109  A    between atoms: _263  and  _264
REMARK  110  A    between atoms: _263  and  _266
REMARK  111  A    between atoms: _266  and  _267
REMARK  112  A    between atoms: _272  and  _274
REMARK  113  A    between atoms: _274  and  _275
REMARK  114  A    between atoms: _274  and  _277
REMARK  115  A    between atoms: _277  and  _278
REMARK  116  A    between atoms: _278  and  _279
REMARK  117  A    between atoms: _279  and  _280
REMARK  118  A    between atoms: _289  and  _291
REMARK  119  A    between atoms: _291  and  _292
REMARK  120  A    between atoms: _291  and  _294
REMARK  121  A    between atoms: _294  and  _295
REMARK  122  A    between atoms: _298  and  _300
REMARK  123  A    between atoms: _300  and  _301
REMARK  124  A    between atoms: _300  and  _303
REMARK  125  A    between atoms: _303  and  _304
REMARK  126  A    between atoms: _307  and  _309
REMARK  127  A    between atoms: _309  and  _310
REMARK  128  A    between atoms: _309  and  _312
REMARK  129  A    between atoms: _312  and  _313
REMARK  130  A    between atoms: _316  and  _318
REMARK  131  A    between atoms: _318  and  _319
REMARK  132  A    between atoms: _318  and  _321
REMARK  133  A    between atoms: _321  and  _322
REMARK  134  A    between atoms: _325  and  _327
REMARK  135  A    between atoms: _327  and  _328
REMARK  136  A    between atoms: _330  and  _332
REMARK  137  A    between atoms: _332  and  _333
REMARK  138  A    between atoms: _336  and  _338
REMARK  139  A    between atoms: _338  and  _339
REMARK  140  A    between atoms: _338  and  _341
REMARK  141  A    between atoms: _341  and  _342
REMARK  142  A    between atoms: _345  and  _347
REMARK  143  A    between atoms: _347  and  _348
REMARK  144  A    between atoms: _347  and  _350
REMARK  145  A    between atoms: _350  and  _351
REMARK  146  A    between atoms: _354  and  _356
REMARK  147  A    between atoms: _356  and  _357
REMARK  148  A    between atoms: _356  and  _359
REMARK  149  A    between atoms: _359  and  _360
REMARK  150  A    between atoms: _363  and  _365
REMARK  151  A    between atoms: _365  and  _366
REMARK  152  A    between atoms: _365  and  _368
REMARK  153  A    between atoms: _371  and  _373
REMARK  154  A    between atoms: _373  and  _374
REMARK  155  A    between atoms: _373  and  _376
REMARK  156  A    between atoms: _376  and  _377
REMARK  157  A    between atoms: _380  and  _382
REMARK  158  A    between atoms: _382  and  _383
REMARK  159  A    between atoms: _382  and  _385
REMARK  160  A    between atoms: _385  and  _386
REMARK  161  A    between atoms: _386  and  _387
REMARK  162  A    between atoms: _387  and  _388
REMARK  163  A    between atoms: _388  and  _389
REMARK  164  A    between atoms: _393  and  _395
REMARK  165  A    between atoms: _395  and  _396
REMARK  166  A    between atoms: _395  and  _398
REMARK  167  A    between atoms: _398  and  _399
REMARK  168  A    between atoms: _399  and  _400
REMARK  169  A    between atoms: _402  and  _404
REMARK  170  A    between atoms: _404  and  _405
REMARK  171  A    between atoms: _404  and  _407
REMARK  172  A    between atoms: _407  and  _408
REMARK  173  A    between atoms: _411  and  _413
REMARK  174  A    between atoms: _413  and  _414
REMARK  175  A    between atoms: _416  and  _418
REMARK  176  A    between atoms: _418  and  _419
REMARK  177  A    between atoms: _421  and  _423
REMARK  178  A    between atoms: _423  and  _424
REMARK  179  A    between atoms: _423  and  _426
REMARK  180  A    between atoms: _426  and  _427
REMARK  181  A    between atoms: _430  and  _432
REMARK  182  A    between atoms: _432  and  _433
REMARK  183  A    between atoms: _435  and  _437
REMARK  184  A    between atoms: _437  and  _438
REMARK  185  A    between atoms: _440  and  _442
REMARK  186  A    between atoms: _442  and  _443
REMARK  187  A    between atoms: _442  and  _445
REMARK  188  A    between atoms: _445  and  _446
REMARK  189  A    between atoms: _452  and  _454
REMARK  190  A    between atoms: _454  and  _455
REMARK  191  A    between atoms: _454  and  _457
REMARK  192  A    between atoms: _457  and  _458
REMARK  193  A    between atoms: _461  and  _463
REMARK  194  A    between atoms: _463  and  _464
REMARK  195  A    between atoms: _463  and  _466
REMARK  196  A    between atoms: _469  and  _471
REMARK  197  A    between atoms: _471  and  _472
REMARK  198  A    between atoms: _471  and  _474
REMARK  199  A    between atoms: _474  and  _475
REMARK  200  A    between atoms: _479  and  _480
REMARK  201  A    between atoms: _485  and  _487
REMARK  202  A    between atoms: _487  and  _488
REMARK  203  A    between atoms: _487  and  _490
REMARK  204  A    between atoms: _490  and  _491
REMARK  205  A    between atoms: _495  and  _496
REMARK  206  A    between atoms: _501  and  _503
REMARK  207  A    between atoms: _503  and  _504
REMARK  208  A    between atoms: _503  and  _506
REMARK  209  A    between atoms: _509  and  _511
REMARK  210  A    between atoms: _511  and  _512
REMARK  211  A    between atoms: _511  and  _514
REMARK  212  A    between atoms: _514  and  _515
REMARK  213  A    between atoms: _520  and  _522
REMARK  214  A    between atoms: _522  and  _523
REMARK  215  A    between atoms: _522  and  _525
REMARK  216  A    between atoms: _525  and  _526
REMARK  217  A    between atoms: _529  and  _531
REMARK  218  A    between atoms: _531  and  _532
REMARK  219  A    between atoms: _531  and  _534
REMARK  220  A    between atoms: _534  and  _535
REMARK  221  A    between atoms: _538  and  _540
REMARK  222  A    between atoms: _540  and  _541
REMARK  223  A    between atoms: _543  and  _545
REMARK  224  A    between atoms: _545  and  _546
REMARK  225  A    between atoms: _545  and  _548
REMARK  226  A    between atoms: _548  and  _549
REMARK  227  A    between atoms: _549  and  _550
REMARK  228  A    between atoms: _550  and  _551
REMARK  229  A    between atoms: _560  and  _562
REMARK  230  A    between atoms: _562  and  _563
REMARK  231  A    between atoms: _562  and  _565
REMARK  232  A    between atoms: _565  and  _566
REMARK                            x       y       z     vdW  Elec       q    Type
REMARK                         _______ _______ _______ _____ _____    ______ ____
ROOT
ATOM      1  O   HOH     1      20.412   3.450  23.718  0.00  0.00    +0.000 OA
ENDROOT
TORSDOF 0
REMARK  Name = ../refined-set-2016/1kzk/1kzk_pocket.pdb
REMARK  232 active torsions:
REMARK  status: ('A' for Active; 'I' for Inactive)
REMARK    1  A    between atoms: _1  and  _3
REMARK    2  A    between atoms: _3  and  _4
REMARK    3  A    between atoms: _3  and  _6
REMARK    4  A    between atoms: _6  and  _7
REMARK    5  A    between atoms: _7  and  _8
REMARK    6  A    between atoms: _8  and  _9
REMARK    7  A    between atoms: _18  and  _20
REMARK    8  A    between atoms: _20  and  _21
REMARK    9  A    between atoms: _20  and  _23
REMARK   10  A    between atoms: _23  and  _24
REMARK   11  A    between atoms: _27  and  _29
REMARK   12  A    between atoms: _29  and  _30
REMARK   13  A    between atoms: _29  and  _32
REMARK   14  A    between atoms: _32  and  _33
REMARK   15  A    between atoms: _36  and  _38
REMARK   16  A    between atoms: _38  and  _39
REMARK   17  A    between atoms: _38  and  _41
REMARK   18  A    between atoms: _41  and  _42
REMARK   19  A    between atoms: _45  and  _47
REMARK   20  A    between atoms: _47  and  _48
REMARK   21  A    between atoms: _47  and  _50
REMARK   22  A    between atoms: _50  and  _51
REMARK   23  A    between atoms: _54  and  _56
REMARK   24  A    between atoms: _56  and  _57
REMARK   25  A    between atoms: _59  and  _61
REMARK   26  A    between atoms: _61  and  _62
REMARK   27  A    between atoms: _65  and  _67
REMARK   28  A    between atoms: _67  and  _68
REMARK   29  A    between atoms: _67  and  _70
REMARK   30  A    between atoms: _70  and  _71
REMARK   31  A    between atoms: _74  and  _76
REMARK   32  A    between atoms: _76  and  _77
REMARK   33  A    between atoms: _76  and  _79
REMARK   34  A    between atoms: _79  and  _80
REMARK   35  A    between atoms: _83  and  _85
REMARK   36  A    between atoms: _85  and  _86
REMARK   37  A    between atoms: _85  and  _88
REMARK   38  A    between atoms: _88  and  _89
REMARK   39  A    between atoms: _92  and  _94
REMARK   40  A    between atoms: _94  and  _95
REMARK   41  A    between atoms: _94  and  _97
REMARK   42  A    between atoms: _100  and  _102
REMARK   43  A    between atoms: _102  and  _103
REMARK   44  A    between atoms: _102  and  _105
REMARK   45  A    between atoms: _106  and  _107
REMARK   46  A    between atoms: _107  and  _108
REMARK   47  A    between atoms: _108  and  _109
REMARK   48  A    between atoms: _113  and  _115
REMARK   49  A    between atoms: _115  and  _116
REMARK   50  A    between atoms: _115  and  _118
REMARK   51  A    between atoms: _118  and  _119
REMARK   52  A    between atoms: _119  and  _120
REMARK   53  A    between atoms: _122  and  _124
REMARK   54  A    between atoms: _124  and  _125
REMARK   55  A    between atoms: _124  and  _127
REMARK   56  A    between atoms: _127  and  _128
REMARK   57  A    between atoms: _131  and  _133
REMARK   58  A    between atoms: _133  and  _134
REMARK   59  A    between atoms: _136  and  _138
REMARK   60  A    between atoms: _138  and  _139
REMARK   61  A    between atoms: _141  and  _143
REMARK   62  A    between atoms: _143  and  _144
REMARK   63  A    between atoms: _143  and  _146
REMARK   64  A    between atoms: _146  and  _147
REMARK   65  A    between atoms: _150  and  _152
REMARK   66  A    between atoms: _152  and  _153
REMARK   67  A    between atoms: _155  and  _157
REMARK   68  A    between atoms: _157  and  _158
REMARK   69  A    between atoms: _160  and  _162
REMARK   70  A    between atoms: _162  and  _163
REMARK   71  A    between atoms: _162  and  _165
REMARK   72  A    between atoms: _165  and  _166
REMARK   73  A    between atoms: _169  and  _171
REMARK   74  A    between atoms: _171  and  _172
REMARK   75  A    between atoms: _171  and  _174
REMARK   76  A    between atoms: _177  and  _179
REMARK   77  A    between atoms: _179  and  _180
REMARK   78  A    between atoms: _179  and  _182
REMARK   79  A    between atoms: _182  and  _183
REMARK   80  A    between atoms: _186  and  _188
REMARK   81  A    between atoms: _188  and  _189
REMARK   82  A    between atoms: _188  and  _191
REMARK   83  A    between atoms: _191  and  _192
REMARK   84  A    between atoms: _196  and  _197
REMARK   85  A    between atoms: _202  and  _204
REMARK   86  A    between atoms: _204  and  _205
REMARK   87  A    between atoms: _204  and  _207
REMARK   88  A    between atoms: _210  and  _212
REMARK   89  A    between atoms: _212  and  _213
REMARK   90  A    between atoms: _212  and  _215
REMARK   91  A    between atoms: _215  and  _216
REMARK   92  A    between atoms: _221  and  _223
REMARK   93  A    between atoms: _223  and  _224
REMARK   94  A    between atoms: _223  and  _226
REMARK   95  A    between atoms: _226  and  _227
REMARK   96  A    between atoms: _230  and  _232
REMARK   97  A    between atoms: _232  and  _233
REMARK   98  A    between atoms: _232  and  _235
REMARK   99  A    between atoms: _235  and  _236
REMARK  100  A    between atoms: _239  and  _241
REMARK  101  A    between atoms: _241  and  _242
REMARK  102  A    between atoms: _244  and  _246
REMARK  103  A    between atoms: _246  and  _247
REMARK  104  A    between atoms: _246  and  _249
REMARK  105  A    between atoms: _249  and  _250
REMARK  106  A    between atoms: _250  and  _251
REMARK  107  A    between atoms: _251  and  _252
REMARK  108  A    between atoms: _261  and  _263
REMARK  109  A    between atoms: _263  and  _264
REMARK  110  A    between atoms: _263  and  _266
REMARK  111  A    between atoms: _266  and  _267
REMARK  112  A    between atoms: _272  and  _274
REMARK  113  A    between atoms: _274  and  _275
REMARK  114  A    between atoms: _274  and  _277
REMARK  115  A    between atoms: _277  and  _278
REMARK  116  A    between atoms: _278  and  _279
REMARK  117  A    between atoms: _279  and  _280
REMARK  118  A    between atoms: _289  and  _291
REMARK  119  A    between atoms: _291  and  _292
REMARK  120  A    between atoms: _291  and  _294
REMARK  121  A    between atoms: _294  and  _295
REMARK  122  A    between atoms: _298  and  _300
REMARK  123  A    between atoms: _300  and  _301
REMARK  124  A    between atoms: _300  and  _303
REMARK  125  A    between atoms: _303  and  _304
REMARK  126  A    between atoms: _307  and  _309
REMARK  127  A    between atoms: _309  and  _310
REMARK  128  A    between atoms: _309  and  _312
REMARK  129  A    between atoms: _312  and  _313
REMARK  130  A    between atoms: _316  and  _318
REMARK  131  A    between atoms: _318  and  _319
REMARK  132  A    between atoms: _318  and  _321
REMARK  133  A    between atoms: _321  and  _322
REMARK  134  A    between atoms: _325  and  _327
REMARK  135  A    between atoms: _327  and  _328
REMARK  136  A    between atoms: _330  and  _332
REMARK  137  A    between atoms: _332  and  _333
REMARK  138  A    between atoms: _336  and  _338
REMARK  139  A    between atoms: _338  and  _339
REMARK  140  A    between atoms: _338  and  _341
REMARK  141  A    between atoms: _341  and  _342
REMARK  142  A    between atoms: _345  and  _347
REMARK  143  A    between atoms: _347  and  _348
REMARK  144  A    between atoms: _347  and  _350
REMARK  145  A    between atoms: _350  and  _351
REMARK  146  A    between atoms: _354  and  _356
REMARK  147  A    between atoms: _356  and  _357
REMARK  148  A    between atoms: _356  and  _359
REMARK  149  A    between atoms: _359  and  _360
REMARK  150  A    between atoms: _363  and  _365
REMARK  151  A    between atoms: _365  and  _366
REMARK  152  A    between atoms: _365  and  _368
REMARK  153  A    between atoms: _371  and  _373
REMARK  154  A    between atoms: _373  and  _374
REMARK  155  A    between atoms: _373  and  _376
REMARK  156  A    between atoms: _376  and  _377
REMARK  157  A    between atoms: _380  and  _382
REMARK  158  A    between atoms: _382  and  _383
REMARK  159  A    between atoms: _382  and  _385
REMARK  160  A    between atoms: _385  and  _386
REMARK  161  A    between atoms: _386  and  _387
REMARK  162  A    between atoms: _387  and  _388
REMARK  163  A    between atoms: _388  and  _389
REMARK  164  A    between atoms: _393  and  _395
REMARK  165  A    between atoms: _395  and  _396
REMARK  166  A    between atoms: _395  and  _398
REMARK  167  A    between atoms: _398  and  _399
REMARK  168  A    between atoms: _399  and  _400
REMARK  169  A    between atoms: _402  and  _404
REMARK  170  A    between atoms: _404  and  _405
REMARK  171  A    between atoms: _404  and  _407
REMARK  172  A    between atoms: _407  and  _408
REMARK  173  A    between atoms: _411  and  _413
REMARK  174  A    between atoms: _413  and  _414
REMARK  175  A    between atoms: _416  and  _418
REMARK  176  A    between atoms: _418  and  _419
REMARK  177  A    between atoms: _421  and  _423
REMARK  178  A    between atoms: _423  and  _424
REMARK  179  A    between atoms: _423  and  _426
REMARK  180  A    between atoms: _426  and  _427
REMARK  181  A    between atoms: _430  and  _432
REMARK  182  A    between atoms: _432  and  _433
REMARK  183  A    between atoms: _435  and  _437
REMARK  184  A    between atoms: _437  and  _438
REMARK  185  A    between atoms: _440  and  _442
REMARK  186  A    between atoms: _442  and  _443
REMARK  187  A    between atoms: _442  and  _445
REMARK  188  A    between atoms: _445  and  _446
REMARK  189  A    between atoms: _452  and  _454
REMARK  190  A    between atoms: _454  and  _455
REMARK  191  A    between atoms: _454  and  _457
REMARK  192  A    between atoms: _457  and  _458
REMARK  193  A    between atoms: _461  and  _463
REMARK  194  A    between atoms: _463  and  _464
REMARK  195  A    between atoms: _463  and  _466
REMARK  196  A    between atoms: _469  and  _471
REMARK  197  A    between atoms: _471  and  _472
REMARK  198  A    between atoms: _471  and  _474
REMARK  199  A    between atoms: _474  and  _475
REMARK  200  A    between atoms: _479  and  _480
REMARK  201  A    between atoms: _485  and  _487
REMARK  202  A    between atoms: _487  and  _488
REMARK  203  A    between atoms: _487  and  _490
REMARK  204  A    between atoms: _490  and  _491
REMARK  205  A    between atoms: _495  and  _496
REMARK  206  A    between atoms: _501  and  _503
REMARK  207  A    between atoms: _503  and  _504
REMARK  208  A    between atoms: _503  and  _506
REMARK  209  A    between atoms: _509  and  _511
REMARK  210  A    between atoms: _511  and  _512
REMARK  211  A    between atoms: _511  and  _514
REMARK  212  A    between atoms: _514  and  _515
REMARK  213  A    between atoms: _520  and  _522
REMARK  214  A    between atoms: _522  and  _523
REMARK  215  A    between atoms: _522  and  _525
REMARK  216  A    between atoms: _525  and  _526
REMARK  217  A    between atoms: _529  and  _531
REMARK  218  A    between atoms: _531  and  _532
REMARK  219  A    between atoms: _531  and  _534
REMARK  220  A    between atoms: _534  and  _535
REMARK  221  A    between atoms: _538  and  _540
REMARK  222  A    between atoms: _540  and  _541
REMARK  223  A    between atoms: _543  and  _545
REMARK  224  A    between atoms: _545  and  _546
REMARK  225  A    between atoms: _545  and  _548
REMARK  226  A    between atoms: _548  and  _549
REMARK  227  A    between atoms: _549  and  _550
REMARK  228  A    between atoms: _550  and  _551
REMARK  229  A    between atoms: _560  and  _562
REMARK  230  A    between atoms: _562  and  _563
REMARK  231  A    between atoms: _562  and  _565
REMARK  232  A    between atoms: _565  and  _566
REMARK                            x       y       z     vdW  Elec       q    Type
REMARK                         _______ _______ _______ _____ _____    ______ ____
ROOT
ATOM      1  O   HOH     1      23.335   3.555  24.810  0.00  0.00    +0.000 OA
ENDROOT
TORSDOF 0
REMARK  Name = ../refined-set-2016/1kzk/1kzk_pocket.pdb
REMARK  232 active torsions:
REMARK  status: ('A' for Active; 'I' for Inactive)
REMARK    1  A    between atoms: _1  and  _3
REMARK    2  A    between atoms: _3  and  _4
REMARK    3  A    between atoms: _3  and  _6
REMARK    4  A    between atoms: _6  and  _7
REMARK    5  A    between atoms: _7  and  _8
REMARK    6  A    between atoms: _8  and  _9
REMARK    7  A    between atoms: _18  and  _20
REMARK    8  A    between atoms: _20  and  _21
REMARK    9  A    between atoms: _20  and  _23
REMARK   10  A    between atoms: _23  and  _24
REMARK   11  A    between atoms: _27  and  _29
REMARK   12  A    between atoms: _29  and  _30
REMARK   13  A    between atoms: _29  and  _32
REMARK   14  A    between atoms: _32  and  _33
REMARK   15  A    between atoms: _36  and  _38
REMARK   16  A    between atoms: _38  and  _39
REMARK   17  A    between atoms: _38  and  _41
REMARK   18  A    between atoms: _41  and  _42
REMARK   19  A    between atoms: _45  and  _47
REMARK   20  A    between atoms: _47  and  _48
REMARK   21  A    between atoms: _47  and  _50
REMARK   22  A    between atoms: _50  and  _51
REMARK   23  A    between atoms: _54  and  _56
REMARK   24  A    between atoms: _56  and  _57
REMARK   25  A    between atoms: _59  and  _61
REMARK   26  A    between atoms: _61  and  _62
REMARK   27  A    between atoms: _65  and  _67
REMARK   28  A    between atoms: _67  and  _68
REMARK   29  A    between atoms: _67  and  _70
REMARK   30  A    between atoms: _70  and  _71
REMARK   31  A    between atoms: _74  and  _76
REMARK   32  A    between atoms: _76  and  _77
REMARK   33  A    between atoms: _76  and  _79
REMARK   34  A    between atoms: _79  and  _80
REMARK   35  A    between atoms: _83  and  _85
REMARK   36  A    between atoms: _85  and  _86
REMARK   37  A    between atoms: _85  and  _88
REMARK   38  A    between atoms: _88  and  _89
REMARK   39  A    between atoms: _92  and  _94
REMARK   40  A    between atoms: _94  and  _95
REMARK   41  A    between atoms: _94  and  _97
REMARK   42  A    between atoms: _100  and  _102
REMARK   43  A    between atoms: _102  and  _103
REMARK   44  A    between atoms: _102  and  _105
REMARK   45  A    between atoms: _106  and  _107
REMARK   46  A    between atoms: _107  and  _108
REMARK   47  A    between atoms: _108  and  _109
REMARK   48  A    between atoms: _113  and  _115
REMARK   49  A    between atoms: _115  and  _116
REMARK   50  A    between atoms: _115  and  _118
REMARK   51  A    between atoms: _118  and  _119
REMARK   52  A    between atoms: _119  and  _120
REMARK   53  A    between atoms: _122  and  _124
REMARK   54  A    between atoms: _124  and  _125
REMARK   55  A    between atoms: _124  and  _127
REMARK   56  A    between atoms: _127  and  _128
REMARK   57  A    between atoms: _131  and  _133
REMARK   58  A    between atoms: _133  and  _134
REMARK   59  A    between atoms: _136  and  _138
REMARK   60  A    between atoms: _138  and  _139
REMARK   61  A    between atoms: _141  and  _143
REMARK   62  A    between atoms: _143  and  _144
REMARK   63  A    between atoms: _143  and  _146
REMARK   64  A    between atoms: _146  and  _147
REMARK   65  A    between atoms: _150  and  _152
REMARK   66  A    between atoms: _152  and  _153
REMARK   67  A    between atoms: _155  and  _157
REMARK   68  A    between atoms: _157  and  _158
REMARK   69  A    between atoms: _160  and  _162
REMARK   70  A    between atoms: _162  and  _163
REMARK   71  A    between atoms: _162  and  _165
REMARK   72  A    between atoms: _165  and  _166
REMARK   73  A    between atoms: _169  and  _171
REMARK   74  A    between atoms: _171  and  _172
REMARK   75  A    between atoms: _171  and  _174
REMARK   76  A    between atoms: _177  and  _179
REMARK   77  A    between atoms: _179  and  _180
REMARK   78  A    between atoms: _179  and  _182
REMARK   79  A    between atoms: _182  and  _183
REMARK   80  A    between atoms: _186  and  _188
REMARK   81  A    between atoms: _188  and  _189
REMARK   82  A    between atoms: _188  and  _191
REMARK   83  A    between atoms: _191  and  _192
REMARK   84  A    between atoms: _196  and  _197
REMARK   85  A    between atoms: _202  and  _204
REMARK   86  A    between atoms: _204  and  _205
REMARK   87  A    between atoms: _204  and  _207
REMARK   88  A    between atoms: _210  and  _212
REMARK   89  A    between atoms: _212  and  _213
REMARK   90  A    between atoms: _212  and  _215
REMARK   91  A    between atoms: _215  and  _216
REMARK   92  A    between atoms: _221  and  _223
REMARK   93  A    between atoms: _223  and  _224
REMARK   94  A    between atoms: _223  and  _226
REMARK   95  A    between atoms: _226  and  _227
REMARK   96  A    between atoms: _230  and  _232
REMARK   97  A    between atoms: _232  and  _233
REMARK   98  A    between atoms: _232  and  _235
REMARK   99  A    between atoms: _235  and  _236
REMARK  100  A    between atoms: _239  and  _241
REMARK  101  A    between atoms: _241  and  _242
REMARK  102  A    between atoms: _244  and  _246
REMARK  103  A    between atoms: _246  and  _247
REMARK  104  A    between atoms: _246  and  _249
REMARK  105  A    between atoms: _249  and  _250
REMARK  106  A    between atoms: _250  and  _251
REMARK  107  A    between atoms: _251  and  _252
REMARK  108  A    between atoms: _261  and  _263
REMARK  109  A    between atoms: _263  and  _264
REMARK  110  A    between atoms: _263  and  _266
REMARK  111  A    between atoms: _266  and  _267
REMARK  112  A    between atoms: _272  and  _274
REMARK  113  A    between atoms: _274  and  _275
REMARK  114  A    between atoms: _274  and  _277
REMARK  115  A    between atoms: _277  and  _278
REMARK  116  A    between atoms: _278  and  _279
REMARK  117  A    between atoms: _279  and  _280
REMARK  118  A    between atoms: _289  and  _291
REMARK  119  A    between atoms: _291  and  _292
REMARK  120  A    between atoms: _291  and  _294
REMARK  121  A    between atoms: _294  and  _295
REMARK  122  A    between atoms: _298  and  _300
REMARK  123  A    between atoms: _300  and  _301
REMARK  124  A    between atoms: _300  and  _303
REMARK  125  A    between atoms: _303  and  _304
REMARK  126  A    between atoms: _307  and  _309
REMARK  127  A    between atoms: _309  and  _310
REMARK  128  A    between atoms: _309  and  _312
REMARK  129  A    between atoms: _312  and  _313
REMARK  130  A    between atoms: _316  and  _318
REMARK  131  A    between atoms: _318  and  _319
REMARK  132  A    between atoms: _318  and  _321
REMARK  133  A    between atoms: _321  and  _322
REMARK  134  A    between atoms: _325  and  _327
REMARK  135  A    between atoms: _327  and  _328
REMARK  136  A    between atoms: _330  and  _332
REMARK  137  A    between atoms: _332  and  _333
REMARK  138  A    between atoms: _336  and  _338
REMARK  139  A    between atoms: _338  and  _339
REMARK  140  A    between atoms: _338  and  _341
REMARK  141  A    between atoms: _341  and  _342
REMARK  142  A    between atoms: _345  and  _347
REMARK  143  A    between atoms: _347  and  _348
REMARK  144  A    between atoms: _347  and  _350
REMARK  145  A    between atoms: _350  and  _351
REMARK  146  A    between atoms: _354  and  _356
REMARK  147  A    between atoms: _356  and  _357
REMARK  148  A    between atoms: _356  and  _359
REMARK  149  A    between atoms: _359  and  _360
REMARK  150  A    between atoms: _363  and  _365
REMARK  151  A    between atoms: _365  and  _366
REMARK  152  A    between atoms: _365  and  _368
REMARK  153  A    between atoms: _371  and  _373
REMARK  154  A    between atoms: _373  and  _374
REMARK  155  A    between atoms: _373  and  _376
REMARK  156  A    between atoms: _376  and  _377
REMARK  157  A    between atoms: _380  and  _382
REMARK  158  A    between atoms: _382  and  _383
REMARK  159  A    between atoms: _382  and  _385
REMARK  160  A    between atoms: _385  and  _386
REMARK  161  A    between atoms: _386  and  _387
REMARK  162  A    between atoms: _387  and  _388
REMARK  163  A    between atoms: _388  and  _389
REMARK  164  A    between atoms: _393  and  _395
REMARK  165  A    between atoms: _395  and  _396
REMARK  166  A    between atoms: _395  and  _398
REMARK  167  A    between atoms: _398  and  _399
REMARK  168  A    between atoms: _399  and  _400
REMARK  169  A    between atoms: _402  and  _404
REMARK  170  A    between atoms: _404  and  _405
REMARK  171  A    between atoms: _404  and  _407
REMARK  172  A    between atoms: _407  and  _408
REMARK  173  A    between atoms: _411  and  _413
REMARK  174  A    between atoms: _413  and  _414
REMARK  175  A    between atoms: _416  and  _418
REMARK  176  A    between atoms: _418  and  _419
REMARK  177  A    between atoms: _421  and  _423
REMARK  178  A    between atoms: _423  and  _424
REMARK  179  A    between atoms: _423  and  _426
REMARK  180  A    between atoms: _426  and  _427
REMARK  181  A    between atoms: _430  and  _432
REMARK  182  A    between atoms: _432  and  _433
REMARK  183  A    between atoms: _435  and  _437
REMARK  184  A    between atoms: _437  and  _438
REMARK  185  A    between atoms: _440  and  _442
REMARK  186  A    between atoms: _442  and  _443
REMARK  187  A    between atoms: _442  and  _445
REMARK  188  A    between atoms: _445  and  _446
REMARK  189  A    between atoms: _452  and  _454
REMARK  190  A    between atoms: _454  and  _455
REMARK  191  A    between atoms: _454  and  _457
REMARK  192  A    between atoms: _457  and  _458
REMARK  193  A    between atoms: _461  and  _463
REMARK  194  A    between atoms: _463  and  _464
REMARK  195  A    between atoms: _463  and  _466
REMARK  196  A    between atoms: _469  and  _471
REMARK  197  A    between atoms: _471  and  _472
REMARK  198  A    between atoms: _471  and  _474
REMARK  199  A    between atoms: _474  and  _475
REMARK  200  A    between atoms: _479  and  _480
REMARK  201  A    between atoms: _485  and  _487
REMARK  202  A    between atoms: _487  and  _488
REMARK  203  A    between atoms: _487  and  _490
REMARK  204  A    between atoms: _490  and  _491
REMARK  205  A    between atoms: _495  and  _496
REMARK  206  A    between atoms: _501  and  _503
REMARK  207  A    between atoms: _503  and  _504
REMARK  208  A    between atoms: _503  and  _506
REMARK  209  A    between atoms: _509  and  _511
REMARK  210  A    between atoms: _511  and  _512
REMARK  211  A    between atoms: _511  and  _514
REMARK  212  A    between atoms: _514  and  _515
REMARK  213  A    between atoms: _520  and  _522
REMARK  214  A    between atoms: _522  and  _523
REMARK  215  A    between atoms: _522  and  _525
REMARK  216  A    between atoms: _525  and  _526
REMARK  217  A    between atoms: _529  and  _531
REMARK  218  A    between atoms: _531  and  _532
REMARK  219  A    between atoms: _531  and  _534
REMARK  220  A    between atoms: _534  and  _535
REMARK  221  A    between atoms: _538  and  _540
REMARK  222  A    between atoms: _540  and  _541
REMARK  223  A    between atoms: _543  and  _545
REMARK  224  A    between atoms: _545  and  _546
REMARK  225  A    between atoms: _545  and  _548
REMARK  226  A    between atoms: _548  and  _549
REMARK  227  A    between atoms: _549  and  _550
REMARK  228  A    between atoms: _550  and  _551
REMARK  229  A    between atoms: _560  and  _562
REMARK  230  A    between atoms: _562  and  _563
REMARK  231  A    between atoms: _562  and  _565
REMARK  232  A    between atoms: _565  and  _566
REMARK                            x       y       z     vdW  Elec       q    Type
REMARK                         _______ _______ _______ _____ _____    ______ ____
ROOT
ATOM      1  O   HOH     1      25.371   5.232  23.980  0.00  0.00    +0.000 OA
ENDROOT
TORSDOF 0
REMARK  Name = ../refined-set-2016/1kzk/1kzk_pocket.pdb
REMARK  232 active torsions:
REMARK  status: ('A' for Active; 'I' for Inactive)
REMARK    1  A    between atoms: _1  and  _3
REMARK    2  A    between atoms: _3  and  _4
REMARK    3  A    between atoms: _3  and  _6
REMARK    4  A    between atoms: _6  and  _7
REMARK    5  A    between atoms: _7  and  _8
REMARK    6  A    between atoms: _8  and  _9
REMARK    7  A    between atoms: _18  and  _20
REMARK    8  A    between atoms: _20  and  _21
REMARK    9  A    between atoms: _20  and  _23
REMARK   10  A    between atoms: _23  and  _24
REMARK   11  A    between atoms: _27  and  _29
REMARK   12  A    between atoms: _29  and  _30
REMARK   13  A    between atoms: _29  and  _32
REMARK   14  A    between atoms: _32  and  _33
REMARK   15  A    between atoms: _36  and  _38
REMARK   16  A    between atoms: _38  and  _39
REMARK   17  A    between atoms: _38  and  _41
REMARK   18  A    between atoms: _41  and  _42
REMARK   19  A    between atoms: _45  and  _47
REMARK   20  A    between atoms: _47  and  _48
REMARK   21  A    between atoms: _47  and  _50
REMARK   22  A    between atoms: _50  and  _51
REMARK   23  A    between atoms: _54  and  _56
REMARK   24  A    between atoms: _56  and  _57
REMARK   25  A    between atoms: _59  and  _61
REMARK   26  A    between atoms: _61  and  _62
REMARK   27  A    between atoms: _65  and  _67
REMARK   28  A    between atoms: _67  and  _68
REMARK   29  A    between atoms: _67  and  _70
REMARK   30  A    between atoms: _70  and  _71
REMARK   31  A    between atoms: _74  and  _76
REMARK   32  A    between atoms: _76  and  _77
REMARK   33  A    between atoms: _76  and  _79
REMARK   34  A    between atoms: _79  and  _80
REMARK   35  A    between atoms: _83  and  _85
REMARK   36  A    between atoms: _85  and  _86
REMARK   37  A    between atoms: _85  and  _88
REMARK   38  A    between atoms: _88  and  _89
REMARK   39  A    between atoms: _92  and  _94
REMARK   40  A    between atoms: _94  and  _95
REMARK   41  A    between atoms: _94  and  _97
REMARK   42  A    between atoms: _100  and  _102
REMARK   43  A    between atoms: _102  and  _103
REMARK   44  A    between atoms: _102  and  _105
REMARK   45  A    between atoms: _106  and  _107
REMARK   46  A    between atoms: _107  and  _108
REMARK   47  A    between atoms: _108  and  _109
REMARK   48  A    between atoms: _113  and  _115
REMARK   49  A    between atoms: _115  and  _116
REMARK   50  A    between atoms: _115  and  _118
REMARK   51  A    between atoms: _118  and  _119
REMARK   52  A    between atoms: _119  and  _120
REMARK   53  A    between atoms: _122  and  _124
REMARK   54  A    between atoms: _124  and  _125
REMARK   55  A    between atoms: _124  and  _127
REMARK   56  A    between atoms: _127  and  _128
REMARK   57  A    between atoms: _131  and  _133
REMARK   58  A    between atoms: _133  and  _134
REMARK   59  A    between atoms: _136  and  _138
REMARK   60  A    between atoms: _138  and  _139
REMARK   61  A    between atoms: _141  and  _143
REMARK   62  A    between atoms: _143  and  _144
REMARK   63  A    between atoms: _143  and  _146
REMARK   64  A    between atoms: _146  and  _147
REMARK   65  A    between atoms: _150  and  _152
REMARK   66  A    between atoms: _152  and  _153
REMARK   67  A    between atoms: _155  and  _157
REMARK   68  A    between atoms: _157  and  _158
REMARK   69  A    between atoms: _160  and  _162
REMARK   70  A    between atoms: _162  and  _163
REMARK   71  A    between atoms: _162  and  _165
REMARK   72  A    between atoms: _165  and  _166
REMARK   73  A    between atoms: _169  and  _171
REMARK   74  A    between atoms: _171  and  _172
REMARK   75  A    between atoms: _171  and  _174
REMARK   76  A    between atoms: _177  and  _179
REMARK   77  A    between atoms: _179  and  _180
REMARK   78  A    between atoms: _179  and  _182
REMARK   79  A    between atoms: _182  and  _183
REMARK   80  A    between atoms: _186  and  _188
REMARK   81  A    between atoms: _188  and  _189
REMARK   82  A    between atoms: _188  and  _191
REMARK   83  A    between atoms: _191  and  _192
REMARK   84  A    between atoms: _196  and  _197
REMARK   85  A    between atoms: _202  and  _204
REMARK   86  A    between atoms: _204  and  _205
REMARK   87  A    between atoms: _204  and  _207
REMARK   88  A    between atoms: _210  and  _212
REMARK   89  A    between atoms: _212  and  _213
REMARK   90  A    between atoms: _212  and  _215
REMARK   91  A    between atoms: _215  and  _216
REMARK   92  A    between atoms: _221  and  _223
REMARK   93  A    between atoms: _223  and  _224
REMARK   94  A    between atoms: _223  and  _226
REMARK   95  A    between atoms: _226  and  _227
REMARK   96  A    between atoms: _230  and  _232
REMARK   97  A    between atoms: _232  and  _233
REMARK   98  A    between atoms: _232  and  _235
REMARK   99  A    between atoms: _235  and  _236
REMARK  100  A    between atoms: _239  and  _241
REMARK  101  A    between atoms: _241  and  _242
REMARK  102  A    between atoms: _244  and  _246
REMARK  103  A    between atoms: _246  and  _247
REMARK  104  A    between atoms: _246  and  _249
REMARK  105  A    between atoms: _249  and  _250
REMARK  106  A    between atoms: _250  and  _251
REMARK  107  A    between atoms: _251  and  _252
REMARK  108  A    between atoms: _261  and  _263
REMARK  109  A    between atoms: _263  and  _264
REMARK  110  A    between atoms: _263  and  _266
REMARK  111  A    between atoms: _266  and  _267
REMARK  112  A    between atoms: _272  and  _274
REMARK  113  A    between atoms: _274  and  _275
REMARK  114  A    between atoms: _274  and  _277
REMARK  115  A    between atoms: _277  and  _278
REMARK  116  A    between atoms: _278  and  _279
REMARK  117  A    between atoms: _279  and  _280
REMARK  118  A    between atoms: _289  and  _291
REMARK  119  A    between atoms: _291  and  _292
REMARK  120  A    between atoms: _291  and  _294
REMARK  121  A    between atoms: _294  and  _295
REMARK  122  A    between atoms: _298  and  _300
REMARK  123  A    between atoms: _300  and  _301
REMARK  124  A    between atoms: _300  and  _303
REMARK  125  A    between atoms: _303  and  _304
REMARK  126  A    between atoms: _307  and  _309
REMARK  127  A    between atoms: _309  and  _310
REMARK  128  A    between atoms: _309  and  _312
REMARK  129  A    between atoms: _312  and  _313
REMARK  130  A    between atoms: _316  and  _318
REMARK  131  A    between atoms: _318  and  _319
REMARK  132  A    between atoms: _318  and  _321
REMARK  133  A    between atoms: _321  and  _322
REMARK  134  A    between atoms: _325  and  _327
REMARK  135  A    between atoms: _327  and  _328
REMARK  136  A    between atoms: _330  and  _332
REMARK  137  A    between atoms: _332  and  _333
REMARK  138  A    between atoms: _336  and  _338
REMARK  139  A    between atoms: _338  and  _339
REMARK  140  A    between atoms: _338  and  _341
REMARK  141  A    between atoms: _341  and  _342
REMARK  142  A    between atoms: _345  and  _347
REMARK  143  A    between atoms: _347  and  _348
REMARK  144  A    between atoms: _347  and  _350
REMARK  145  A    between atoms: _350  and  _351
REMARK  146  A    between atoms: _354  and  _356
REMARK  147  A    between atoms: _356  and  _357
REMARK  148  A    between atoms: _356  and  _359
REMARK  149  A    between atoms: _359  and  _360
REMARK  150  A    between atoms: _363  and  _365
REMARK  151  A    between atoms: _365  and  _366
REMARK  152  A    between atoms: _365  and  _368
REMARK  153  A    between atoms: _371  and  _373
REMARK  154  A    between atoms: _373  and  _374
REMARK  155  A    between atoms: _373  and  _376
REMARK  156  A    between atoms: _376  and  _377
REMARK  157  A    between atoms: _380  and  _382
REMARK  158  A    between atoms: _382  and  _383
REMARK  159  A    between atoms: _382  and  _385
REMARK  160  A    between atoms: _385  and  _386
REMARK  161  A    between atoms: _386  and  _387
REMARK  162  A    between atoms: _387  and  _388
REMARK  163  A    between atoms: _388  and  _389
REMARK  164  A    between atoms: _393  and  _395
REMARK  165  A    between atoms: _395  and  _396
REMARK  166  A    between atoms: _395  and  _398
REMARK  167  A    between atoms: _398  and  _399
REMARK  168  A    between atoms: _399  and  _400
REMARK  169  A    between atoms: _402  and  _404
REMARK  170  A    between atoms: _404  and  _405
REMARK  171  A    between atoms: _404  and  _407
REMARK  172  A    between atoms: _407  and  _408
REMARK  173  A    between atoms: _411  and  _413
REMARK  174  A    between atoms: _413  and  _414
REMARK  175  A    between atoms: _416  and  _418
REMARK  176  A    between atoms: _418  and  _419
REMARK  177  A    between atoms: _421  and  _423
REMARK  178  A    between atoms: _423  and  _424
REMARK  179  A    between atoms: _423  and  _426
REMARK  180  A    between atoms: _426  and  _427
REMARK  181  A    between atoms: _430  and  _432
REMARK  182  A    between atoms: _432  and  _433
REMARK  183  A    between atoms: _435  and  _437
REMARK  184  A    between atoms: _437  and  _438
REMARK  185  A    between atoms: _440  and  _442
REMARK  186  A    between atoms: _442  and  _443
REMARK  187  A    between atoms: _442  and  _445
REMARK  188  A    between atoms: _445  and  _446
REMARK  189  A    between atoms: _452  and  _454
REMARK  190  A    between atoms: _454  and  _455
REMARK  191  A    between atoms: _454  and  _457
REMARK  192  A    between atoms: _457  and  _458
REMARK  193  A    between atoms: _461  and  _463
REMARK  194  A    between atoms: _463  and  _464
REMARK  195  A    between atoms: _463  and  _466
REMARK  196  A    between atoms: _469  and  _471
REMARK  197  A    between atoms: _471  and  _472
REMARK  198  A    between atoms: _471  and  _474
REMARK  199  A    between atoms: _474  and  _475
REMARK  200  A    between atoms: _479  and  _480
REMARK  201  A    between atoms: _485  and  _487
REMARK  202  A    between atoms: _487  and  _488
REMARK  203  A    between atoms: _487  and  _490
REMARK  204  A    between atoms: _490  and  _491
REMARK  205  A    between atoms: _495  and  _496
REMARK  206  A    between atoms: _501  and  _503
REMARK  207  A    between atoms: _503  and  _504
REMARK  208  A    between atoms: _503  and  _506
REMARK  209  A    between atoms: _509  and  _511
REMARK  210  A    between atoms: _511  and  _512
REMARK  211  A    between atoms: _511  and  _514
REMARK  212  A    between atoms: _514  and  _515
REMARK  213  A    between atoms: _520  and  _522
REMARK  214  A    between atoms: _522  and  _523
REMARK  215  A    between atoms: _522  and  _525
REMARK  216  A    between atoms: _525  and  _526
REMARK  217  A    between atoms: _529  and  _531
REMARK  218  A    between atoms: _531  and  _532
REMARK  219  A    between atoms: _531  and  _534
REMARK  220  A    between atoms: _534  and  _535
REMARK  221  A    between atoms: _538  and  _540
REMARK  222  A    between atoms: _540  and  _541
REMARK  223  A    between atoms: _543  and  _545
REMARK  224  A    between atoms: _545  and  _546
REMARK  225  A    between atoms: _545  and  _548
REMARK  226  A    between atoms: _548  and  _549
REMARK  227  A    between atoms: _549  and  _550
REMARK  228  A    between atoms: _550  and  _551
REMARK  229  A    between atoms: _560  and  _562
REMARK  230  A    between atoms: _562  and  _563
REMARK  231  A    between atoms: _562  and  _565
REMARK  232  A    between atoms: _565  and  _566
REMARK                            x       y       z     vdW  Elec       q    Type
REMARK                         _______ _______ _______ _____ _____    ______ ____
ROOT
ATOM      1  O   HOH     1      26.248   5.239  26.431  0.00  0.00    +0.000 OA
ENDROOT
TORSDOF 0
REMARK  Name = ../refined-set-2016/1kzk/1kzk_pocket.pdb
REMARK  232 active torsions:
REMARK  status: ('A' for Active; 'I' for Inactive)
REMARK    1  A    between atoms: _1  and  _3
REMARK    2  A    between atoms: _3  and  _4
REMARK    3  A    between atoms: _3  and  _6
REMARK    4  A    between atoms: _6  and  _7
REMARK    5  A    between atoms: _7  and  _8
REMARK    6  A    between atoms: _8  and  _9
REMARK    7  A    between atoms: _18  and  _20
REMARK    8  A    between atoms: _20  and  _21
REMARK    9  A    between atoms: _20  and  _23
REMARK   10  A    between atoms: _23  and  _24
REMARK   11  A    between atoms: _27  and  _29
REMARK   12  A    between atoms: _29  and  _30
REMARK   13  A    between atoms: _29  and  _32
REMARK   14  A    between atoms: _32  and  _33
REMARK   15  A    between atoms: _36  and  _38
REMARK   16  A    between atoms: _38  and  _39
REMARK   17  A    between atoms: _38  and  _41
REMARK   18  A    between atoms: _41  and  _42
REMARK   19  A    between atoms: _45  and  _47
REMARK   20  A    between atoms: _47  and  _48
REMARK   21  A    between atoms: _47  and  _50
REMARK   22  A    between atoms: _50  and  _51
REMARK   23  A    between atoms: _54  and  _56
REMARK   24  A    between atoms: _56  and  _57
REMARK   25  A    between atoms: _59  and  _61
REMARK   26  A    between atoms: _61  and  _62
REMARK   27  A    between atoms: _65  and  _67
REMARK   28  A    between atoms: _67  and  _68
REMARK   29  A    between atoms: _67  and  _70
REMARK   30  A    between atoms: _70  and  _71
REMARK   31  A    between atoms: _74  and  _76
REMARK   32  A    between atoms: _76  and  _77
REMARK   33  A    between atoms: _76  and  _79
REMARK   34  A    between atoms: _79  and  _80
REMARK   35  A    between atoms: _83  and  _85
REMARK   36  A    between atoms: _85  and  _86
REMARK   37  A    between atoms: _85  and  _88
REMARK   38  A    between atoms: _88  and  _89
REMARK   39  A    between atoms: _92  and  _94
REMARK   40  A    between atoms: _94  and  _95
REMARK   41  A    between atoms: _94  and  _97
REMARK   42  A    between atoms: _100  and  _102
REMARK   43  A    between atoms: _102  and  _103
REMARK   44  A    between atoms: _102  and  _105
REMARK   45  A    between atoms: _106  and  _107
REMARK   46  A    between atoms: _107  and  _108
REMARK   47  A    between atoms: _108  and  _109
REMARK   48  A    between atoms: _113  and  _115
REMARK   49  A    between atoms: _115  and  _116
REMARK   50  A    between atoms: _115  and  _118
REMARK   51  A    between atoms: _118  and  _119
REMARK   52  A    between atoms: _119  and  _120
REMARK   53  A    between atoms: _122  and  _124
REMARK   54  A    between atoms: _124  and  _125
REMARK   55  A    between atoms: _124  and  _127
REMARK   56  A    between atoms: _127  and  _128
REMARK   57  A    between atoms: _131  and  _133
REMARK   58  A    between atoms: _133  and  _134
REMARK   59  A    between atoms: _136  and  _138
REMARK   60  A    between atoms: _138  and  _139
REMARK   61  A    between atoms: _141  and  _143
REMARK   62  A    between atoms: _143  and  _144
REMARK   63  A    between atoms: _143  and  _146
REMARK   64  A    between atoms: _146  and  _147
REMARK   65  A    between atoms: _150  and  _152
REMARK   66  A    between atoms: _152  and  _153
REMARK   67  A    between atoms: _155  and  _157
REMARK   68  A    between atoms: _157  and  _158
REMARK   69  A    between atoms: _160  and  _162
REMARK   70  A    between atoms: _162  and  _163
REMARK   71  A    between atoms: _162  and  _165
REMARK   72  A    between atoms: _165  and  _166
REMARK   73  A    between atoms: _169  and  _171
REMARK   74  A    between atoms: _171  and  _172
REMARK   75  A    between atoms: _171  and  _174
REMARK   76  A    between atoms: _177  and  _179
REMARK   77  A    between atoms: _179  and  _180
REMARK   78  A    between atoms: _179  and  _182
REMARK   79  A    between atoms: _182  and  _183
REMARK   80  A    between atoms: _186  and  _188
REMARK   81  A    between atoms: _188  and  _189
REMARK   82  A    between atoms: _188  and  _191
REMARK   83  A    between atoms: _191  and  _192
REMARK   84  A    between atoms: _196  and  _197
REMARK   85  A    between atoms: _202  and  _204
REMARK   86  A    between atoms: _204  and  _205
REMARK   87  A    between atoms: _204  and  _207
REMARK   88  A    between atoms: _210  and  _212
REMARK   89  A    between atoms: _212  and  _213
REMARK   90  A    between atoms: _212  and  _215
REMARK   91  A    between atoms: _215  and  _216
REMARK   92  A    between atoms: _221  and  _223
REMARK   93  A    between atoms: _223  and  _224
REMARK   94  A    between atoms: _223  and  _226
REMARK   95  A    between atoms: _226  and  _227
REMARK   96  A    between atoms: _230  and  _232
REMARK   97  A    between atoms: _232  and  _233
REMARK   98  A    between atoms: _232  and  _235
REMARK   99  A    between atoms: _235  and  _236
REMARK  100  A    between atoms: _239  and  _241
REMARK  101  A    between atoms: _241  and  _242
REMARK  102  A    between atoms: _244  and  _246
REMARK  103  A    between atoms: _246  and  _247
REMARK  104  A    between atoms: _246  and  _249
REMARK  105  A    between atoms: _249  and  _250
REMARK  106  A    between atoms: _250  and  _251
REMARK  107  A    between atoms: _251  and  _252
REMARK  108  A    between atoms: _261  and  _263
REMARK  109  A    between atoms: _263  and  _264
REMARK  110  A    between atoms: _263  and  _266
REMARK  111  A    between atoms: _266  and  _267
REMARK  112  A    between atoms: _272  and  _274
REMARK  113  A    between atoms: _274  and  _275
REMARK  114  A    between atoms: _274  and  _277
REMARK  115  A    between atoms: _277  and  _278
REMARK  116  A    between atoms: _278  and  _279
REMARK  117  A    between atoms: _279  and  _280
REMARK  118  A    between atoms: _289  and  _291
REMARK  119  A    between atoms: _291  and  _292
REMARK  120  A    between atoms: _291  and  _294
REMARK  121  A    between atoms: _294  and  _295
REMARK  122  A    between atoms: _298  and  _300
REMARK  123  A    between atoms: _300  and  _301
REMARK  124  A    between atoms: _300  and  _303
REMARK  125  A    between atoms: _303  and  _304
REMARK  126  A    between atoms: _307  and  _309
REMARK  127  A    between atoms: _309  and  _310
REMARK  128  A    between atoms: _309  and  _312
REMARK  129  A    between atoms: _312  and  _313
REMARK  130  A    between atoms: _316  and  _318
REMARK  131  A    between atoms: _318  and  _319
REMARK  132  A    between atoms: _318  and  _321
REMARK  133  A    between atoms: _321  and  _322
REMARK  134  A    between atoms: _325  and  _327
REMARK  135  A    between atoms: _327  and  _328
REMARK  136  A    between atoms: _330  and  _332
REMARK  137  A    between atoms: _332  and  _333
REMARK  138  A    between atoms: _336  and  _338
REMARK  139  A    between atoms: _338  and  _339
REMARK  140  A    between atoms: _338  and  _341
REMARK  141  A    between atoms: _341  and  _342
REMARK  142  A    between atoms: _345  and  _347
REMARK  143  A    between atoms: _347  and  _348
REMARK  144  A    between atoms: _347  and  _350
REMARK  145  A    between atoms: _350  and  _351
REMARK  146  A    between atoms: _354  and  _356
REMARK  147  A    between atoms: _356  and  _357
REMARK  148  A    between atoms: _356  and  _359
REMARK  149  A    between atoms: _359  and  _360
REMARK  150  A    between atoms: _363  and  _365
REMARK  151  A    between atoms: _365  and  _366
REMARK  152  A    between atoms: _365  and  _368
REMARK  153  A    between atoms: _371  and  _373
REMARK  154  A    between atoms: _373  and  _374
REMARK  155  A    between atoms: _373  and  _376
REMARK  156  A    between atoms: _376  and  _377
REMARK  157  A    between atoms: _380  and  _382
REMARK  158  A    between atoms: _382  and  _383
REMARK  159  A    between atoms: _382  and  _385
REMARK  160  A    between atoms: _385  and  _386
REMARK  161  A    between atoms: _386  and  _387
REMARK  162  A    between atoms: _387  and  _388
REMARK  163  A    between atoms: _388  and  _389
REMARK  164  A    between atoms: _393  and  _395
REMARK  165  A    between atoms: _395  and  _396
REMARK  166  A    between atoms: _395  and  _398
REMARK  167  A    between atoms: _398  and  _399
REMARK  168  A    between atoms: _399  and  _400
REMARK  169  A    between atoms: _402  and  _404
REMARK  170  A    between atoms: _404  and  _405
REMARK  171  A    between atoms: _404  and  _407
REMARK  172  A    between atoms: _407  and  _408
REMARK  173  A    between atoms: _411  and  _413
REMARK  174  A    between atoms: _413  and  _414
REMARK  175  A    between atoms: _416  and  _418
REMARK  176  A    between atoms: _418  and  _419
REMARK  177  A    between atoms: _421  and  _423
REMARK  178  A    between atoms: _423  and  _424
REMARK  179  A    between atoms: _423  and  _426
REMARK  180  A    between atoms: _426  and  _427
REMARK  181  A    between atoms: _430  and  _432
REMARK  182  A    between atoms: _432  and  _433
REMARK  183  A    between atoms: _435  and  _437
REMARK  184  A    between atoms: _437  and  _438
REMARK  185  A    between atoms: _440  and  _442
REMARK  186  A    between atoms: _442  and  _443
REMARK  187  A    between atoms: _442  and  _445
REMARK  188  A    between atoms: _445  and  _446
REMARK  189  A    between atoms: _452  and  _454
REMARK  190  A    between atoms: _454  and  _455
REMARK  191  A    between atoms: _454  and  _457
REMARK  192  A    between atoms: _457  and  _458
REMARK  193  A    between atoms: _461  and  _463
REMARK  194  A    between atoms: _463  and  _464
REMARK  195  A    between atoms: _463  and  _466
REMARK  196  A    between atoms: _469  and  _471
REMARK  197  A    between atoms: _471  and  _472
REMARK  198  A    between atoms: _471  and  _474
REMARK  199  A    between atoms: _474  and  _475
REMARK  200  A    between atoms: _479  and  _480
REMARK  201  A    between atoms: _485  and  _487
REMARK  202  A    between atoms: _487  and  _488
REMARK  203  A    between atoms: _487  and  _490
REMARK  204  A    between atoms: _490  and  _491
REMARK  205  A    between atoms: _495  and  _496
REMARK  206  A    between atoms: _501  and  _503
REMARK  207  A    between atoms: _503  and  _504
REMARK  208  A    between atoms: _503  and  _506
REMARK  209  A    between atoms: _509  and  _511
REMARK  210  A    between atoms: _511  and  _512
REMARK  211  A    between atoms: _511  and  _514
REMARK  212  A    between atoms: _514  and  _515
REMARK  213  A    between atoms: _520  and  _522
REMARK  214  A    between atoms: _522  and  _523
REMARK  215  A    between atoms: _522  and  _525
REMARK  216  A    between atoms: _525  and  _526
REMARK  217  A    between atoms: _529  and  _531
REMARK  218  A    between atoms: _531  and  _532
REMARK  219  A    between atoms: _531  and  _534
REMARK  220  A    between atoms: _534  and  _535
REMARK  221  A    between atoms: _538  and  _540
REMARK  222  A    between atoms: _540  and  _541
REMARK  223  A    between atoms: _543  and  _545
REMARK  224  A    between atoms: _545  and  _546
REMARK  225  A    between atoms: _545  and  _548
REMARK  226  A    between atoms: _548  and  _549
REMARK  227  A    between atoms: _549  and  _550
REMARK  228  A    between atoms: _550  and  _551
REMARK  229  A    between atoms: _560  and  _562
REMARK  230  A    between atoms: _562  and  _563
REMARK  231  A    between atoms: _562  and  _565
REMARK  232  A    between atoms: _565  and  _566
REMARK                            x       y       z     vdW  Elec       q    Type
REMARK                         _______ _______ _______ _____ _____    ______ ____
ROOT
ATOM      1  O   HOH     1      24.964   4.599  28.378  0.00  0.00    +0.000 OA
ENDROOT
TORSDOF 0
REMARK  Name = ../refined-set-2016/1kzk/1kzk_pocket.pdb
REMARK  232 active torsions:
REMARK  status: ('A' for Active; 'I' for Inactive)
REMARK    1  A    between atoms: _1  and  _3
REMARK    2  A    between atoms: _3  and  _4
REMARK    3  A    between atoms: _3  and  _6
REMARK    4  A    between atoms: _6  and  _7
REMARK    5  A    between atoms: _7  and  _8
REMARK    6  A    between atoms: _8  and  _9
REMARK    7  A    between atoms: _18  and  _20
REMARK    8  A    between atoms: _20  and  _21
REMARK    9  A    between atoms: _20  and  _23
REMARK   10  A    between atoms: _23  and  _24
REMARK   11  A    between atoms: _27  and  _29
REMARK   12  A    between atoms: _29  and  _30
REMARK   13  A    between atoms: _29  and  _32
REMARK   14  A    between atoms: _32  and  _33
REMARK   15  A    between atoms: _36  and  _38
REMARK   16  A    between atoms: _38  and  _39
REMARK   17  A    between atoms: _38  and  _41
REMARK   18  A    between atoms: _41  and  _42
REMARK   19  A    between atoms: _45  and  _47
REMARK   20  A    between atoms: _47  and  _48
REMARK   21  A    between atoms: _47  and  _50
REMARK   22  A    between atoms: _50  and  _51
REMARK   23  A    between atoms: _54  and  _56
REMARK   24  A    between atoms: _56  and  _57
REMARK   25  A    between atoms: _59  and  _61
REMARK   26  A    between atoms: _61  and  _62
REMARK   27  A    between atoms: _65  and  _67
REMARK   28  A    between atoms: _67  and  _68
REMARK   29  A    between atoms: _67  and  _70
REMARK   30  A    between atoms: _70  and  _71
REMARK   31  A    between atoms: _74  and  _76
REMARK   32  A    between atoms: _76  and  _77
REMARK   33  A    between atoms: _76  and  _79
REMARK   34  A    between atoms: _79  and  _80
REMARK   35  A    between atoms: _83  and  _85
REMARK   36  A    between atoms: _85  and  _86
REMARK   37  A    between atoms: _85  and  _88
REMARK   38  A    between atoms: _88  and  _89
REMARK   39  A    between atoms: _92  and  _94
REMARK   40  A    between atoms: _94  and  _95
REMARK   41  A    between atoms: _94  and  _97
REMARK   42  A    between atoms: _100  and  _102
REMARK   43  A    between atoms: _102  and  _103
REMARK   44  A    between atoms: _102  and  _105
REMARK   45  A    between atoms: _106  and  _107
REMARK   46  A    between atoms: _107  and  _108
REMARK   47  A    between atoms: _108  and  _109
REMARK   48  A    between atoms: _113  and  _115
REMARK   49  A    between atoms: _115  and  _116
REMARK   50  A    between atoms: _115  and  _118
REMARK   51  A    between atoms: _118  and  _119
REMARK   52  A    between atoms: _119  and  _120
REMARK   53  A    between atoms: _122  and  _124
REMARK   54  A    between atoms: _124  and  _125
REMARK   55  A    between atoms: _124  and  _127
REMARK   56  A    between atoms: _127  and  _128
REMARK   57  A    between atoms: _131  and  _133
REMARK   58  A    between atoms: _133  and  _134
REMARK   59  A    between atoms: _136  and  _138
REMARK   60  A    between atoms: _138  and  _139
REMARK   61  A    between atoms: _141  and  _143
REMARK   62  A    between atoms: _143  and  _144
REMARK   63  A    between atoms: _143  and  _146
REMARK   64  A    between atoms: _146  and  _147
REMARK   65  A    between atoms: _150  and  _152
REMARK   66  A    between atoms: _152  and  _153
REMARK   67  A    between atoms: _155  and  _157
REMARK   68  A    between atoms: _157  and  _158
REMARK   69  A    between atoms: _160  and  _162
REMARK   70  A    between atoms: _162  and  _163
REMARK   71  A    between atoms: _162  and  _165
REMARK   72  A    between atoms: _165  and  _166
REMARK   73  A    between atoms: _169  and  _171
REMARK   74  A    between atoms: _171  and  _172
REMARK   75  A    between atoms: _171  and  _174
REMARK   76  A    between atoms: _177  and  _179
REMARK   77  A    between atoms: _179  and  _180
REMARK   78  A    between atoms: _179  and  _182
REMARK   79  A    between atoms: _182  and  _183
REMARK   80  A    between atoms: _186  and  _188
REMARK   81  A    between atoms: _188  and  _189
REMARK   82  A    between atoms: _188  and  _191
REMARK   83  A    between atoms: _191  and  _192
REMARK   84  A    between atoms: _196  and  _197
REMARK   85  A    between atoms: _202  and  _204
REMARK   86  A    between atoms: _204  and  _205
REMARK   87  A    between atoms: _204  and  _207
REMARK   88  A    between atoms: _210  and  _212
REMARK   89  A    between atoms: _212  and  _213
REMARK   90  A    between atoms: _212  and  _215
REMARK   91  A    between atoms: _215  and  _216
REMARK   92  A    between atoms: _221  and  _223
REMARK   93  A    between atoms: _223  and  _224
REMARK   94  A    between atoms: _223  and  _226
REMARK   95  A    between atoms: _226  and  _227
REMARK   96  A    between atoms: _230  and  _232
REMARK   97  A    between atoms: _232  and  _233
REMARK   98  A    between atoms: _232  and  _235
REMARK   99  A    between atoms: _235  and  _236
REMARK  100  A    between atoms: _239  and  _241
REMARK  101  A    between atoms: _241  and  _242
REMARK  102  A    between atoms: _244  and  _246
REMARK  103  A    between atoms: _246  and  _247
REMARK  104  A    between atoms: _246  and  _249
REMARK  105  A    between atoms: _249  and  _250
REMARK  106  A    between atoms: _250  and  _251
REMARK  107  A    between atoms: _251  and  _252
REMARK  108  A    between atoms: _261  and  _263
REMARK  109  A    between atoms: _263  and  _264
REMARK  110  A    between atoms: _263  and  _266
REMARK  111  A    between atoms: _266  and  _267
REMARK  112  A    between atoms: _272  and  _274
REMARK  113  A    between atoms: _274  and  _275
REMARK  114  A    between atoms: _274  and  _277
REMARK  115  A    between atoms: _277  and  _278
REMARK  116  A    between atoms: _278  and  _279
REMARK  117  A    between atoms: _279  and  _280
REMARK  118  A    between atoms: _289  and  _291
REMARK  119  A    between atoms: _291  and  _292
REMARK  120  A    between atoms: _291  and  _294
REMARK  121  A    between atoms: _294  and  _295
REMARK  122  A    between atoms: _298  and  _300
REMARK  123  A    between atoms: _300  and  _301
REMARK  124  A    between atoms: _300  and  _303
REMARK  125  A    between atoms: _303  and  _304
REMARK  126  A    between atoms: _307  and  _309
REMARK  127  A    between atoms: _309  and  _310
REMARK  128  A    between atoms: _309  and  _312
REMARK  129  A    between atoms: _312  and  _313
REMARK  130  A    between atoms: _316  and  _318
REMARK  131  A    between atoms: _318  and  _319
REMARK  132  A    between atoms: _318  and  _321
REMARK  133  A    between atoms: _321  and  _322
REMARK  134  A    between atoms: _325  and  _327
REMARK  135  A    between atoms: _327  and  _328
REMARK  136  A    between atoms: _330  and  _332
REMARK  137  A    between atoms: _332  and  _333
REMARK  138  A    between atoms: _336  and  _338
REMARK  139  A    between atoms: _338  and  _339
REMARK  140  A    between atoms: _338  and  _341
REMARK  141  A    between atoms: _341  and  _342
REMARK  142  A    between atoms: _345  and  _347
REMARK  143  A    between atoms: _347  and  _348
REMARK  144  A    between atoms: _347  and  _350
REMARK  145  A    between atoms: _350  and  _351
REMARK  146  A    between atoms: _354  and  _356
REMARK  147  A    between atoms: _356  and  _357
REMARK  148  A    between atoms: _356  and  _359
REMARK  149  A    between atoms: _359  and  _360
REMARK  150  A    between atoms: _363  and  _365
REMARK  151  A    between atoms: _365  and  _366
REMARK  152  A    between atoms: _365  and  _368
REMARK  153  A    between atoms: _371  and  _373
REMARK  154  A    between atoms: _373  and  _374
REMARK  155  A    between atoms: _373  and  _376
REMARK  156  A    between atoms: _376  and  _377
REMARK  157  A    between atoms: _380  and  _382
REMARK  158  A    between atoms: _382  and  _383
REMARK  159  A    between atoms: _382  and  _385
REMARK  160  A    between atoms: _385  and  _386
REMARK  161  A    between atoms: _386  and  _387
REMARK  162  A    between atoms: _387  and  _388
REMARK  163  A    between atoms: _388  and  _389
REMARK  164  A    between atoms: _393  and  _395
REMARK  165  A    between atoms: _395  and  _396
REMARK  166  A    between atoms: _395  and  _398
REMARK  167  A    between atoms: _398  and  _399
REMARK  168  A    between atoms: _399  and  _400
REMARK  169  A    between atoms: _402  and  _404
REMARK  170  A    between atoms: _404  and  _405
REMARK  171  A    between atoms: _404  and  _407
REMARK  172  A    between atoms: _407  and  _408
REMARK  173  A    between atoms: _411  and  _413
REMARK  174  A    between atoms: _413  and  _414
REMARK  175  A    between atoms: _416  and  _418
REMARK  176  A    between atoms: _418  and  _419
REMARK  177  A    between atoms: _421  and  _423
REMARK  178  A    between atoms: _423  and  _424
REMARK  179  A    between atoms: _423  and  _426
REMARK  180  A    between atoms: _426  and  _427
REMARK  181  A    between atoms: _430  and  _432
REMARK  182  A    between atoms: _432  and  _433
REMARK  183  A    between atoms: _435  and  _437
REMARK  184  A    between atoms: _437  and  _438
REMARK  185  A    between atoms: _440  and  _442
REMARK  186  A    between atoms: _442  and  _443
REMARK  187  A    between atoms: _442  and  _445
REMARK  188  A    between atoms: _445  and  _446
REMARK  189  A    between atoms: _452  and  _454
REMARK  190  A    between atoms: _454  and  _455
REMARK  191  A    between atoms: _454  and  _457
REMARK  192  A    between atoms: _457  and  _458
REMARK  193  A    between atoms: _461  and  _463
REMARK  194  A    between atoms: _463  and  _464
REMARK  195  A    between atoms: _463  and  _466
REMARK  196  A    between atoms: _469  and  _471
REMARK  197  A    between atoms: _471  and  _472
REMARK  198  A    between atoms: _471  and  _474
REMARK  199  A    between atoms: _474  and  _475
REMARK  200  A    between atoms: _479  and  _480
REMARK  201  A    between atoms: _485  and  _487
REMARK  202  A    between atoms: _487  and  _488
REMARK  203  A    between atoms: _487  and  _490
REMARK  204  A    between atoms: _490  and  _491
REMARK  205  A    between atoms: _495  and  _496
REMARK  206  A    between atoms: _501  and  _503
REMARK  207  A    between atoms: _503  and  _504
REMARK  208  A    between atoms: _503  and  _506
REMARK  209  A    between atoms: _509  and  _511
REMARK  210  A    between atoms: _511  and  _512
REMARK  211  A    between atoms: _511  and  _514
REMARK  212  A    between atoms: _514  and  _515
REMARK  213  A    between atoms: _520  and  _522
REMARK  214  A    between atoms: _522  and  _523
REMARK  215  A    between atoms: _522  and  _525
REMARK  216  A    between atoms: _525  and  _526
REMARK  217  A    between atoms: _529  and  _531
REMARK  218  A    between atoms: _531  and  _532
REMARK  219  A    between atoms: _531  and  _534
REMARK  220  A    between atoms: _534  and  _535
REMARK  221  A    between atoms: _538  and  _540
REMARK  222  A    between atoms: _540  and  _541
REMARK  223  A    between atoms: _543  and  _545
REMARK  224  A    between atoms: _545  and  _546
REMARK  225  A    between atoms: _545  and  _548
REMARK  226  A    between atoms: _548  and  _549
REMARK  227  A    between atoms: _549  and  _550
REMARK  228  A    between atoms: _550  and  _551
REMARK  229  A    between atoms: _560  and  _562
REMARK  230  A    between atoms: _562  and  _563
REMARK  231  A    between atoms: _562  and  _565
REMARK  232  A    between atoms: _565  and  _566
REMARK                            x       y       z     vdW  Elec       q    Type
REMARK                         _______ _______ _______ _____ _____    ______ ____
ROOT
ATOM      1  O   HOH     1      30.242   7.572  19.841  0.00  0.00    +0.000 OA
ENDROOT
TORSDOF 0
REMARK  Name = ../refined-set-2016/1kzk/1kzk_pocket.pdb
REMARK  232 active torsions:
REMARK  status: ('A' for Active; 'I' for Inactive)
REMARK    1  A    between atoms: _1  and  _3
REMARK    2  A    between atoms: _3  and  _4
REMARK    3  A    between atoms: _3  and  _6
REMARK    4  A    between atoms: _6  and  _7
REMARK    5  A    between atoms: _7  and  _8
REMARK    6  A    between atoms: _8  and  _9
REMARK    7  A    between atoms: _18  and  _20
REMARK    8  A    between atoms: _20  and  _21
REMARK    9  A    between atoms: _20  and  _23
REMARK   10  A    between atoms: _23  and  _24
REMARK   11  A    between atoms: _27  and  _29
REMARK   12  A    between atoms: _29  and  _30
REMARK   13  A    between atoms: _29  and  _32
REMARK   14  A    between atoms: _32  and  _33
REMARK   15  A    between atoms: _36  and  _38
REMARK   16  A    between atoms: _38  and  _39
REMARK   17  A    between atoms: _38  and  _41
REMARK   18  A    between atoms: _41  and  _42
REMARK   19  A    between atoms: _45  and  _47
REMARK   20  A    between atoms: _47  and  _48
REMARK   21  A    between atoms: _47  and  _50
REMARK   22  A    between atoms: _50  and  _51
REMARK   23  A    between atoms: _54  and  _56
REMARK   24  A    between atoms: _56  and  _57
REMARK   25  A    between atoms: _59  and  _61
REMARK   26  A    between atoms: _61  and  _62
REMARK   27  A    between atoms: _65  and  _67
REMARK   28  A    between atoms: _67  and  _68
REMARK   29  A    between atoms: _67  and  _70
REMARK   30  A    between atoms: _70  and  _71
REMARK   31  A    between atoms: _74  and  _76
REMARK   32  A    between atoms: _76  and  _77
REMARK   33  A    between atoms: _76  and  _79
REMARK   34  A    between atoms: _79  and  _80
REMARK   35  A    between atoms: _83  and  _85
REMARK   36  A    between atoms: _85  and  _86
REMARK   37  A    between atoms: _85  and  _88
REMARK   38  A    between atoms: _88  and  _89
REMARK   39  A    between atoms: _92  and  _94
REMARK   40  A    between atoms: _94  and  _95
REMARK   41  A    between atoms: _94  and  _97
REMARK   42  A    between atoms: _100  and  _102
REMARK   43  A    between atoms: _102  and  _103
REMARK   44  A    between atoms: _102  and  _105
REMARK   45  A    between atoms: _106  and  _107
REMARK   46  A    between atoms: _107  and  _108
REMARK   47  A    between atoms: _108  and  _109
REMARK   48  A    between atoms: _113  and  _115
REMARK   49  A    between atoms: _115  and  _116
REMARK   50  A    between atoms: _115  and  _118
REMARK   51  A    between atoms: _118  and  _119
REMARK   52  A    between atoms: _119  and  _120
REMARK   53  A    between atoms: _122  and  _124
REMARK   54  A    between atoms: _124  and  _125
REMARK   55  A    between atoms: _124  and  _127
REMARK   56  A    between atoms: _127  and  _128
REMARK   57  A    between atoms: _131  and  _133
REMARK   58  A    between atoms: _133  and  _134
REMARK   59  A    between atoms: _136  and  _138
REMARK   60  A    between atoms: _138  and  _139
REMARK   61  A    between atoms: _141  and  _143
REMARK   62  A    between atoms: _143  and  _144
REMARK   63  A    between atoms: _143  and  _146
REMARK   64  A    between atoms: _146  and  _147
REMARK   65  A    between atoms: _150  and  _152
REMARK   66  A    between atoms: _152  and  _153
REMARK   67  A    between atoms: _155  and  _157
REMARK   68  A    between atoms: _157  and  _158
REMARK   69  A    between atoms: _160  and  _162
REMARK   70  A    between atoms: _162  and  _163
REMARK   71  A    between atoms: _162  and  _165
REMARK   72  A    between atoms: _165  and  _166
REMARK   73  A    between atoms: _169  and  _171
REMARK   74  A    between atoms: _171  and  _172
REMARK   75  A    between atoms: _171  and  _174
REMARK   76  A    between atoms: _177  and  _179
REMARK   77  A    between atoms: _179  and  _180
REMARK   78  A    between atoms: _179  and  _182
REMARK   79  A    between atoms: _182  and  _183
REMARK   80  A    between atoms: _186  and  _188
REMARK   81  A    between atoms: _188  and  _189
REMARK   82  A    between atoms: _188  and  _191
REMARK   83  A    between atoms: _191  and  _192
REMARK   84  A    between atoms: _196  and  _197
REMARK   85  A    between atoms: _202  and  _204
REMARK   86  A    between atoms: _204  and  _205
REMARK   87  A    between atoms: _204  and  _207
REMARK   88  A    between atoms: _210  and  _212
REMARK   89  A    between atoms: _212  and  _213
REMARK   90  A    between atoms: _212  and  _215
REMARK   91  A    between atoms: _215  and  _216
REMARK   92  A    between atoms: _221  and  _223
REMARK   93  A    between atoms: _223  and  _224
REMARK   94  A    between atoms: _223  and  _226
REMARK   95  A    between atoms: _226  and  _227
REMARK   96  A    between atoms: _230  and  _232
REMARK   97  A    between atoms: _232  and  _233
REMARK   98  A    between atoms: _232  and  _235
REMARK   99  A    between atoms: _235  and  _236
REMARK  100  A    between atoms: _239  and  _241
REMARK  101  A    between atoms: _241  and  _242
REMARK  102  A    between atoms: _244  and  _246
REMARK  103  A    between atoms: _246  and  _247
REMARK  104  A    between atoms: _246  and  _249
REMARK  105  A    between atoms: _249  and  _250
REMARK  106  A    between atoms: _250  and  _251
REMARK  107  A    between atoms: _251  and  _252
REMARK  108  A    between atoms: _261  and  _263
REMARK  109  A    between atoms: _263  and  _264
REMARK  110  A    between atoms: _263  and  _266
REMARK  111  A    between atoms: _266  and  _267
REMARK  112  A    between atoms: _272  and  _274
REMARK  113  A    between atoms: _274  and  _275
REMARK  114  A    between atoms: _274  and  _277
REMARK  115  A    between atoms: _277  and  _278
REMARK  116  A    between atoms: _278  and  _279
REMARK  117  A    between atoms: _279  and  _280
REMARK  118  A    between atoms: _289  and  _291
REMARK  119  A    between atoms: _291  and  _292
REMARK  120  A    between atoms: _291  and  _294
REMARK  121  A    between atoms: _294  and  _295
REMARK  122  A    between atoms: _298  and  _300
REMARK  123  A    between atoms: _300  and  _301
REMARK  124  A    between atoms: _300  and  _303
REMARK  125  A    between atoms: _303  and  _304
REMARK  126  A    between atoms: _307  and  _309
REMARK  127  A    between atoms: _309  and  _310
REMARK  128  A    between atoms: _309  and  _312
REMARK  129  A    between atoms: _312  and  _313
REMARK  130  A    between atoms: _316  and  _318
REMARK  131  A    between atoms: _318  and  _319
REMARK  132  A    between atoms: _318  and  _321
REMARK  133  A    between atoms: _321  and  _322
REMARK  134  A    between atoms: _325  and  _327
REMARK  135  A    between atoms: _327  and  _328
REMARK  136  A    between atoms: _330  and  _332
REMARK  137  A    between atoms: _332  and  _333
REMARK  138  A    between atoms: _336  and  _338
REMARK  139  A    between atoms: _338  and  _339
REMARK  140  A    between atoms: _338  and  _341
REMARK  141  A    between atoms: _341  and  _342
REMARK  142  A    between atoms: _345  and  _347
REMARK  143  A    between atoms: _347  and  _348
REMARK  144  A    between atoms: _347  and  _350
REMARK  145  A    between atoms: _350  and  _351
REMARK  146  A    between atoms: _354  and  _356
REMARK  147  A    between atoms: _356  and  _357
REMARK  148  A    between atoms: _356  and  _359
REMARK  149  A    between atoms: _359  and  _360
REMARK  150  A    between atoms: _363  and  _365
REMARK  151  A    between atoms: _365  and  _366
REMARK  152  A    between atoms: _365  and  _368
REMARK  153  A    between atoms: _371  and  _373
REMARK  154  A    between atoms: _373  and  _374
REMARK  155  A    between atoms: _373  and  _376
REMARK  156  A    between atoms: _376  and  _377
REMARK  157  A    between atoms: _380  and  _382
REMARK  158  A    between atoms: _382  and  _383
REMARK  159  A    between atoms: _382  and  _385
REMARK  160  A    between atoms: _385  and  _386
REMARK  161  A    between atoms: _386  and  _387
REMARK  162  A    between atoms: _387  and  _388
REMARK  163  A    between atoms: _388  and  _389
REMARK  164  A    between atoms: _393  and  _395
REMARK  165  A    between atoms: _395  and  _396
REMARK  166  A    between atoms: _395  and  _398
REMARK  167  A    between atoms: _398  and  _399
REMARK  168  A    between atoms: _399  and  _400
REMARK  169  A    between atoms: _402  and  _404
REMARK  170  A    between atoms: _404  and  _405
REMARK  171  A    between atoms: _404  and  _407
REMARK  172  A    between atoms: _407  and  _408
REMARK  173  A    between atoms: _411  and  _413
REMARK  174  A    between atoms: _413  and  _414
REMARK  175  A    between atoms: _416  and  _418
REMARK  176  A    between atoms: _418  and  _419
REMARK  177  A    between atoms: _421  and  _423
REMARK  178  A    between atoms: _423  and  _424
REMARK  179  A    between atoms: _423  and  _426
REMARK  180  A    between atoms: _426  and  _427
REMARK  181  A    between atoms: _430  and  _432
REMARK  182  A    between atoms: _432  and  _433
REMARK  183  A    between atoms: _435  and  _437
REMARK  184  A    between atoms: _437  and  _438
REMARK  185  A    between atoms: _440  and  _442
REMARK  186  A    between atoms: _442  and  _443
REMARK  187  A    between atoms: _442  and  _445
REMARK  188  A    between atoms: _445  and  _446
REMARK  189  A    between atoms: _452  and  _454
REMARK  190  A    between atoms: _454  and  _455
REMARK  191  A    between atoms: _454  and  _457
REMARK  192  A    between atoms: _457  and  _458
REMARK  193  A    between atoms: _461  and  _463
REMARK  194  A    between atoms: _463  and  _464
REMARK  195  A    between atoms: _463  and  _466
REMARK  196  A    between atoms: _469  and  _471
REMARK  197  A    between atoms: _471  and  _472
REMARK  198  A    between atoms: _471  and  _474
REMARK  199  A    between atoms: _474  and  _475
REMARK  200  A    between atoms: _479  and  _480
REMARK  201  A    between atoms: _485  and  _487
REMARK  202  A    between atoms: _487  and  _488
REMARK  203  A    between atoms: _487  and  _490
REMARK  204  A    between atoms: _490  and  _491
REMARK  205  A    between atoms: _495  and  _496
REMARK  206  A    between atoms: _501  and  _503
REMARK  207  A    between atoms: _503  and  _504
REMARK  208  A    between atoms: _503  and  _506
REMARK  209  A    between atoms: _509  and  _511
REMARK  210  A    between atoms: _511  and  _512
REMARK  211  A    between atoms: _511  and  _514
REMARK  212  A    between atoms: _514  and  _515
REMARK  213  A    between atoms: _520  and  _522
REMARK  214  A    between atoms: _522  and  _523
REMARK  215  A    between atoms: _522  and  _525
REMARK  216  A    between atoms: _525  and  _526
REMARK  217  A    between atoms: _529  and  _531
REMARK  218  A    between atoms: _531  and  _532
REMARK  219  A    between atoms: _531  and  _534
REMARK  220  A    between atoms: _534  and  _535
REMARK  221  A    between atoms: _538  and  _540
REMARK  222  A    between atoms: _540  and  _541
REMARK  223  A    between atoms: _543  and  _545
REMARK  224  A    between atoms: _545  and  _546
REMARK  225  A    between atoms: _545  and  _548
REMARK  226  A    between atoms: _548  and  _549
REMARK  227  A    between atoms: _549  and  _550
REMARK  228  A    between atoms: _550  and  _551
REMARK  229  A    between atoms: _560  and  _562
REMARK  230  A    between atoms: _562  and  _563
REMARK  231  A    between atoms: _562  and  _565
REMARK  232  A    between atoms: _565  and  _566
REMARK                            x       y       z     vdW  Elec       q    Type
REMARK                         _______ _______ _______ _____ _____    ______ ____
ROOT
ATOM      1  O   HOH     1      31.658   5.230  19.121  0.00  0.00    +0.000 OA
ENDROOT
TORSDOF 0
REMARK  Name = ../refined-set-2016/1kzk/1kzk_pocket.pdb
REMARK  232 active torsions:
REMARK  status: ('A' for Active; 'I' for Inactive)
REMARK    1  A    between atoms: _1  and  _3
REMARK    2  A    between atoms: _3  and  _4
REMARK    3  A    between atoms: _3  and  _6
REMARK    4  A    between atoms: _6  and  _7
REMARK    5  A    between atoms: _7  and  _8
REMARK    6  A    between atoms: _8  and  _9
REMARK    7  A    between atoms: _18  and  _20
REMARK    8  A    between atoms: _20  and  _21
REMARK    9  A    between atoms: _20  and  _23
REMARK   10  A    between atoms: _23  and  _24
REMARK   11  A    between atoms: _27  and  _29
REMARK   12  A    between atoms: _29  and  _30
REMARK   13  A    between atoms: _29  and  _32
REMARK   14  A    between atoms: _32  and  _33
REMARK   15  A    between atoms: _36  and  _38
REMARK   16  A    between atoms: _38  and  _39
REMARK   17  A    between atoms: _38  and  _41
REMARK   18  A    between atoms: _41  and  _42
REMARK   19  A    between atoms: _45  and  _47
REMARK   20  A    between atoms: _47  and  _48
REMARK   21  A    between atoms: _47  and  _50
REMARK   22  A    between atoms: _50  and  _51
REMARK   23  A    between atoms: _54  and  _56
REMARK   24  A    between atoms: _56  and  _57
REMARK   25  A    between atoms: _59  and  _61
REMARK   26  A    between atoms: _61  and  _62
REMARK   27  A    between atoms: _65  and  _67
REMARK   28  A    between atoms: _67  and  _68
REMARK   29  A    between atoms: _67  and  _70
REMARK   30  A    between atoms: _70  and  _71
REMARK   31  A    between atoms: _74  and  _76
REMARK   32  A    between atoms: _76  and  _77
REMARK   33  A    between atoms: _76  and  _79
REMARK   34  A    between atoms: _79  and  _80
REMARK   35  A    between atoms: _83  and  _85
REMARK   36  A    between atoms: _85  and  _86
REMARK   37  A    between atoms: _85  and  _88
REMARK   38  A    between atoms: _88  and  _89
REMARK   39  A    between atoms: _92  and  _94
REMARK   40  A    between atoms: _94  and  _95
REMARK   41  A    between atoms: _94  and  _97
REMARK   42  A    between atoms: _100  and  _102
REMARK   43  A    between atoms: _102  and  _103
REMARK   44  A    between atoms: _102  and  _105
REMARK   45  A    between atoms: _106  and  _107
REMARK   46  A    between atoms: _107  and  _108
REMARK   47  A    between atoms: _108  and  _109
REMARK   48  A    between atoms: _113  and  _115
REMARK   49  A    between atoms: _115  and  _116
REMARK   50  A    between atoms: _115  and  _118
REMARK   51  A    between atoms: _118  and  _119
REMARK   52  A    between atoms: _119  and  _120
REMARK   53  A    between atoms: _122  and  _124
REMARK   54  A    between atoms: _124  and  _125
REMARK   55  A    between atoms: _124  and  _127
REMARK   56  A    between atoms: _127  and  _128
REMARK   57  A    between atoms: _131  and  _133
REMARK   58  A    between atoms: _133  and  _134
REMARK   59  A    between atoms: _136  and  _138
REMARK   60  A    between atoms: _138  and  _139
REMARK   61  A    between atoms: _141  and  _143
REMARK   62  A    between atoms: _143  and  _144
REMARK   63  A    between atoms: _143  and  _146
REMARK   64  A    between atoms: _146  and  _147
REMARK   65  A    between atoms: _150  and  _152
REMARK   66  A    between atoms: _152  and  _153
REMARK   67  A    between atoms: _155  and  _157
REMARK   68  A    between atoms: _157  and  _158
REMARK   69  A    between atoms: _160  and  _162
REMARK   70  A    between atoms: _162  and  _163
REMARK   71  A    between atoms: _162  and  _165
REMARK   72  A    between atoms: _165  and  _166
REMARK   73  A    between atoms: _169  and  _171
REMARK   74  A    between atoms: _171  and  _172
REMARK   75  A    between atoms: _171  and  _174
REMARK   76  A    between atoms: _177  and  _179
REMARK   77  A    between atoms: _179  and  _180
REMARK   78  A    between atoms: _179  and  _182
REMARK   79  A    between atoms: _182  and  _183
REMARK   80  A    between atoms: _186  and  _188
REMARK   81  A    between atoms: _188  and  _189
REMARK   82  A    between atoms: _188  and  _191
REMARK   83  A    between atoms: _191  and  _192
REMARK   84  A    between atoms: _196  and  _197
REMARK   85  A    between atoms: _202  and  _204
REMARK   86  A    between atoms: _204  and  _205
REMARK   87  A    between atoms: _204  and  _207
REMARK   88  A    between atoms: _210  and  _212
REMARK   89  A    between atoms: _212  and  _213
REMARK   90  A    between atoms: _212  and  _215
REMARK   91  A    between atoms: _215  and  _216
REMARK   92  A    between atoms: _221  and  _223
REMARK   93  A    between atoms: _223  and  _224
REMARK   94  A    between atoms: _223  and  _226
REMARK   95  A    between atoms: _226  and  _227
REMARK   96  A    between atoms: _230  and  _232
REMARK   97  A    between atoms: _232  and  _233
REMARK   98  A    between atoms: _232  and  _235
REMARK   99  A    between atoms: _235  and  _236
REMARK  100  A    between atoms: _239  and  _241
REMARK  101  A    between atoms: _241  and  _242
REMARK  102  A    between atoms: _244  and  _246
REMARK  103  A    between atoms: _246  and  _247
REMARK  104  A    between atoms: _246  and  _249
REMARK  105  A    between atoms: _249  and  _250
REMARK  106  A    between atoms: _250  and  _251
REMARK  107  A    between atoms: _251  and  _252
REMARK  108  A    between atoms: _261  and  _263
REMARK  109  A    between atoms: _263  and  _264
REMARK  110  A    between atoms: _263  and  _266
REMARK  111  A    between atoms: _266  and  _267
REMARK  112  A    between atoms: _272  and  _274
REMARK  113  A    between atoms: _274  and  _275
REMARK  114  A    between atoms: _274  and  _277
REMARK  115  A    between atoms: _277  and  _278
REMARK  116  A    between atoms: _278  and  _279
REMARK  117  A    between atoms: _279  and  _280
REMARK  118  A    between atoms: _289  and  _291
REMARK  119  A    between atoms: _291  and  _292
REMARK  120  A    between atoms: _291  and  _294
REMARK  121  A    between atoms: _294  and  _295
REMARK  122  A    between atoms: _298  and  _300
REMARK  123  A    between atoms: _300  and  _301
REMARK  124  A    between atoms: _300  and  _303
REMARK  125  A    between atoms: _303  and  _304
REMARK  126  A    between atoms: _307  and  _309
REMARK  127  A    between atoms: _309  and  _310
REMARK  128  A    between atoms: _309  and  _312
REMARK  129  A    between atoms: _312  and  _313
REMARK  130  A    between atoms: _316  and  _318
REMARK  131  A    between atoms: _318  and  _319
REMARK  132  A    between atoms: _318  and  _321
REMARK  133  A    between atoms: _321  and  _322
REMARK  134  A    between atoms: _325  and  _327
REMARK  135  A    between atoms: _327  and  _328
REMARK  136  A    between atoms: _330  and  _332
REMARK  137  A    between atoms: _332  and  _333
REMARK  138  A    between atoms: _336  and  _338
REMARK  139  A    between atoms: _338  and  _339
REMARK  140  A    between atoms: _338  and  _341
REMARK  141  A    between atoms: _341  and  _342
REMARK  142  A    between atoms: _345  and  _347
REMARK  143  A    between atoms: _347  and  _348
REMARK  144  A    between atoms: _347  and  _350
REMARK  145  A    between atoms: _350  and  _351
REMARK  146  A    between atoms: _354  and  _356
REMARK  147  A    between atoms: _356  and  _357
REMARK  148  A    between atoms: _356  and  _359
REMARK  149  A    between atoms: _359  and  _360
REMARK  150  A    between atoms: _363  and  _365
REMARK  151  A    between atoms: _365  and  _366
REMARK  152  A    between atoms: _365  and  _368
REMARK  153  A    between atoms: _371  and  _373
REMARK  154  A    between atoms: _373  and  _374
REMARK  155  A    between atoms: _373  and  _376
REMARK  156  A    between atoms: _376  and  _377
REMARK  157  A    between atoms: _380  and  _382
REMARK  158  A    between atoms: _382  and  _383
REMARK  159  A    between atoms: _382  and  _385
REMARK  160  A    between atoms: _385  and  _386
REMARK  161  A    between atoms: _386  and  _387
REMARK  162  A    between atoms: _387  and  _388
REMARK  163  A    between atoms: _388  and  _389
REMARK  164  A    between atoms: _393  and  _395
REMARK  165  A    between atoms: _395  and  _396
REMARK  166  A    between atoms: _395  and  _398
REMARK  167  A    between atoms: _398  and  _399
REMARK  168  A    between atoms: _399  and  _400
REMARK  169  A    between atoms: _402  and  _404
REMARK  170  A    between atoms: _404  and  _405
REMARK  171  A    between atoms: _404  and  _407
REMARK  172  A    between atoms: _407  and  _408
REMARK  173  A    between atoms: _411  and  _413
REMARK  174  A    between atoms: _413  and  _414
REMARK  175  A    between atoms: _416  and  _418
REMARK  176  A    between atoms: _418  and  _419
REMARK  177  A    between atoms: _421  and  _423
REMARK  178  A    between atoms: _423  and  _424
REMARK  179  A    between atoms: _423  and  _426
REMARK  180  A    between atoms: _426  and  _427
REMARK  181  A    between atoms: _430  and  _432
REMARK  182  A    between atoms: _432  and  _433
REMARK  183  A    between atoms: _435  and  _437
REMARK  184  A    between atoms: _437  and  _438
REMARK  185  A    between atoms: _440  and  _442
REMARK  186  A    between atoms: _442  and  _443
REMARK  187  A    between atoms: _442  and  _445
REMARK  188  A    between atoms: _445  and  _446
REMARK  189  A    between atoms: _452  and  _454
REMARK  190  A    between atoms: _454  and  _455
REMARK  191  A    between atoms: _454  and  _457
REMARK  192  A    between atoms: _457  and  _458
REMARK  193  A    between atoms: _461  and  _463
REMARK  194  A    between atoms: _463  and  _464
REMARK  195  A    between atoms: _463  and  _466
REMARK  196  A    between atoms: _469  and  _471
REMARK  197  A    between atoms: _471  and  _472
REMARK  198  A    between atoms: _471  and  _474
REMARK  199  A    between atoms: _474  and  _475
REMARK  200  A    between atoms: _479  and  _480
REMARK  201  A    between atoms: _485  and  _487
REMARK  202  A    between atoms: _487  and  _488
REMARK  203  A    between atoms: _487  and  _490
REMARK  204  A    between atoms: _490  and  _491
REMARK  205  A    between atoms: _495  and  _496
REMARK  206  A    between atoms: _501  and  _503
REMARK  207  A    between atoms: _503  and  _504
REMARK  208  A    between atoms: _503  and  _506
REMARK  209  A    between atoms: _509  and  _511
REMARK  210  A    between atoms: _511  and  _512
REMARK  211  A    between atoms: _511  and  _514
REMARK  212  A    between atoms: _514  and  _515
REMARK  213  A    between atoms: _520  and  _522
REMARK  214  A    between atoms: _522  and  _523
REMARK  215  A    between atoms: _522  and  _525
REMARK  216  A    between atoms: _525  and  _526
REMARK  217  A    between atoms: _529  and  _531
REMARK  218  A    between atoms: _531  and  _532
REMARK  219  A    between atoms: _531  and  _534
REMARK  220  A    between atoms: _534  and  _535
REMARK  221  A    between atoms: _538  and  _540
REMARK  222  A    between atoms: _540  and  _541
REMARK  223  A    between atoms: _543  and  _545
REMARK  224  A    between atoms: _545  and  _546
REMARK  225  A    between atoms: _545  and  _548
REMARK  226  A    between atoms: _548  and  _549
REMARK  227  A    between atoms: _549  and  _550
REMARK  228  A    between atoms: _550  and  _551
REMARK  229  A    between atoms: _560  and  _562
REMARK  230  A    between atoms: _562  and  _563
REMARK  231  A    between atoms: _562  and  _565
REMARK  232  A    between atoms: _565  and  _566
REMARK                            x       y       z     vdW  Elec       q    Type
REMARK                         _______ _______ _______ _____ _____    ______ ____
ROOT
ATOM      1  O   HOH     1      26.762   8.348  22.271  0.00  0.00    +0.000 OA
ENDROOT
TORSDOF 0
REMARK  Name = ../refined-set-2016/1kzk/1kzk_pocket.pdb
REMARK  232 active torsions:
REMARK  status: ('A' for Active; 'I' for Inactive)
REMARK    1  A    between atoms: _1  and  _3
REMARK    2  A    between atoms: _3  and  _4
REMARK    3  A    between atoms: _3  and  _6
REMARK    4  A    between atoms: _6  and  _7
REMARK    5  A    between atoms: _7  and  _8
REMARK    6  A    between atoms: _8  and  _9
REMARK    7  A    between atoms: _18  and  _20
REMARK    8  A    between atoms: _20  and  _21
REMARK    9  A    between atoms: _20  and  _23
REMARK   10  A    between atoms: _23  and  _24
REMARK   11  A    between atoms: _27  and  _29
REMARK   12  A    between atoms: _29  and  _30
REMARK   13  A    between atoms: _29  and  _32
REMARK   14  A    between atoms: _32  and  _33
REMARK   15  A    between atoms: _36  and  _38
REMARK   16  A    between atoms: _38  and  _39
REMARK   17  A    between atoms: _38  and  _41
REMARK   18  A    between atoms: _41  and  _42
REMARK   19  A    between atoms: _45  and  _47
REMARK   20  A    between atoms: _47  and  _48
REMARK   21  A    between atoms: _47  and  _50
REMARK   22  A    between atoms: _50  and  _51
REMARK   23  A    between atoms: _54  and  _56
REMARK   24  A    between atoms: _56  and  _57
REMARK   25  A    between atoms: _59  and  _61
REMARK   26  A    between atoms: _61  and  _62
REMARK   27  A    between atoms: _65  and  _67
REMARK   28  A    between atoms: _67  and  _68
REMARK   29  A    between atoms: _67  and  _70
REMARK   30  A    between atoms: _70  and  _71
REMARK   31  A    between atoms: _74  and  _76
REMARK   32  A    between atoms: _76  and  _77
REMARK   33  A    between atoms: _76  and  _79
REMARK   34  A    between atoms: _79  and  _80
REMARK   35  A    between atoms: _83  and  _85
REMARK   36  A    between atoms: _85  and  _86
REMARK   37  A    between atoms: _85  and  _88
REMARK   38  A    between atoms: _88  and  _89
REMARK   39  A    between atoms: _92  and  _94
REMARK   40  A    between atoms: _94  and  _95
REMARK   41  A    between atoms: _94  and  _97
REMARK   42  A    between atoms: _100  and  _102
REMARK   43  A    between atoms: _102  and  _103
REMARK   44  A    between atoms: _102  and  _105
REMARK   45  A    between atoms: _106  and  _107
REMARK   46  A    between atoms: _107  and  _108
REMARK   47  A    between atoms: _108  and  _109
REMARK   48  A    between atoms: _113  and  _115
REMARK   49  A    between atoms: _115  and  _116
REMARK   50  A    between atoms: _115  and  _118
REMARK   51  A    between atoms: _118  and  _119
REMARK   52  A    between atoms: _119  and  _120
REMARK   53  A    between atoms: _122  and  _124
REMARK   54  A    between atoms: _124  and  _125
REMARK   55  A    between atoms: _124  and  _127
REMARK   56  A    between atoms: _127  and  _128
REMARK   57  A    between atoms: _131  and  _133
REMARK   58  A    between atoms: _133  and  _134
REMARK   59  A    between atoms: _136  and  _138
REMARK   60  A    between atoms: _138  and  _139
REMARK   61  A    between atoms: _141  and  _143
REMARK   62  A    between atoms: _143  and  _144
REMARK   63  A    between atoms: _143  and  _146
REMARK   64  A    between atoms: _146  and  _147
REMARK   65  A    between atoms: _150  and  _152
REMARK   66  A    between atoms: _152  and  _153
REMARK   67  A    between atoms: _155  and  _157
REMARK   68  A    between atoms: _157  and  _158
REMARK   69  A    between atoms: _160  and  _162
REMARK   70  A    between atoms: _162  and  _163
REMARK   71  A    between atoms: _162  and  _165
REMARK   72  A    between atoms: _165  and  _166
REMARK   73  A    between atoms: _169  and  _171
REMARK   74  A    between atoms: _171  and  _172
REMARK   75  A    between atoms: _171  and  _174
REMARK   76  A    between atoms: _177  and  _179
REMARK   77  A    between atoms: _179  and  _180
REMARK   78  A    between atoms: _179  and  _182
REMARK   79  A    between atoms: _182  and  _183
REMARK   80  A    between atoms: _186  and  _188
REMARK   81  A    between atoms: _188  and  _189
REMARK   82  A    between atoms: _188  and  _191
REMARK   83  A    between atoms: _191  and  _192
REMARK   84  A    between atoms: _196  and  _197
REMARK   85  A    between atoms: _202  and  _204
REMARK   86  A    between atoms: _204  and  _205
REMARK   87  A    between atoms: _204  and  _207
REMARK   88  A    between atoms: _210  and  _212
REMARK   89  A    between atoms: _212  and  _213
REMARK   90  A    between atoms: _212  and  _215
REMARK   91  A    between atoms: _215  and  _216
REMARK   92  A    between atoms: _221  and  _223
REMARK   93  A    between atoms: _223  and  _224
REMARK   94  A    between atoms: _223  and  _226
REMARK   95  A    between atoms: _226  and  _227
REMARK   96  A    between atoms: _230  and  _232
REMARK   97  A    between atoms: _232  and  _233
REMARK   98  A    between atoms: _232  and  _235
REMARK   99  A    between atoms: _235  and  _236
REMARK  100  A    between atoms: _239  and  _241
REMARK  101  A    between atoms: _241  and  _242
REMARK  102  A    between atoms: _244  and  _246
REMARK  103  A    between atoms: _246  and  _247
REMARK  104  A    between atoms: _246  and  _249
REMARK  105  A    between atoms: _249  and  _250
REMARK  106  A    between atoms: _250  and  _251
REMARK  107  A    between atoms: _251  and  _252
REMARK  108  A    between atoms: _261  and  _263
REMARK  109  A    between atoms: _263  and  _264
REMARK  110  A    between atoms: _263  and  _266
REMARK  111  A    between atoms: _266  and  _267
REMARK  112  A    between atoms: _272  and  _274
REMARK  113  A    between atoms: _274  and  _275
REMARK  114  A    between atoms: _274  and  _277
REMARK  115  A    between atoms: _277  and  _278
REMARK  116  A    between atoms: _278  and  _279
REMARK  117  A    between atoms: _279  and  _280
REMARK  118  A    between atoms: _289  and  _291
REMARK  119  A    between atoms: _291  and  _292
REMARK  120  A    between atoms: _291  and  _294
REMARK  121  A    between atoms: _294  and  _295
REMARK  122  A    between atoms: _298  and  _300
REMARK  123  A    between atoms: _300  and  _301
REMARK  124  A    between atoms: _300  and  _303
REMARK  125  A    between atoms: _303  and  _304
REMARK  126  A    between atoms: _307  and  _309
REMARK  127  A    between atoms: _309  and  _310
REMARK  128  A    between atoms: _309  and  _312
REMARK  129  A    between atoms: _312  and  _313
REMARK  130  A    between atoms: _316  and  _318
REMARK  131  A    between atoms: _318  and  _319
REMARK  132  A    between atoms: _318  and  _321
REMARK  133  A    between atoms: _321  and  _322
REMARK  134  A    between atoms: _325  and  _327
REMARK  135  A    between atoms: _327  and  _328
REMARK  136  A    between atoms: _330  and  _332
REMARK  137  A    between atoms: _332  and  _333
REMARK  138  A    between atoms: _336  and  _338
REMARK  139  A    between atoms: _338  and  _339
REMARK  140  A    between atoms: _338  and  _341
REMARK  141  A    between atoms: _341  and  _342
REMARK  142  A    between atoms: _345  and  _347
REMARK  143  A    between atoms: _347  and  _348
REMARK  144  A    between atoms: _347  and  _350
REMARK  145  A    between atoms: _350  and  _351
REMARK  146  A    between atoms: _354  and  _356
REMARK  147  A    between atoms: _356  and  _357
REMARK  148  A    between atoms: _356  and  _359
REMARK  149  A    between atoms: _359  and  _360
REMARK  150  A    between atoms: _363  and  _365
REMARK  151  A    between atoms: _365  and  _366
REMARK  152  A    between atoms: _365  and  _368
REMARK  153  A    between atoms: _371  and  _373
REMARK  154  A    between atoms: _373  and  _374
REMARK  155  A    between atoms: _373  and  _376
REMARK  156  A    between atoms: _376  and  _377
REMARK  157  A    between atoms: _380  and  _382
REMARK  158  A    between atoms: _382  and  _383
REMARK  159  A    between atoms: _382  and  _385
REMARK  160  A    between atoms: _385  and  _386
REMARK  161  A    between atoms: _386  and  _387
REMARK  162  A    between atoms: _387  and  _388
REMARK  163  A    between atoms: _388  and  _389
REMARK  164  A    between atoms: _393  and  _395
REMARK  165  A    between atoms: _395  and  _396
REMARK  166  A    between atoms: _395  and  _398
REMARK  167  A    between atoms: _398  and  _399
REMARK  168  A    between atoms: _399  and  _400
REMARK  169  A    between atoms: _402  and  _404
REMARK  170  A    between atoms: _404  and  _405
REMARK  171  A    between atoms: _404  and  _407
REMARK  172  A    between atoms: _407  and  _408
REMARK  173  A    between atoms: _411  and  _413
REMARK  174  A    between atoms: _413  and  _414
REMARK  175  A    between atoms: _416  and  _418
REMARK  176  A    between atoms: _418  and  _419
REMARK  177  A    between atoms: _421  and  _423
REMARK  178  A    between atoms: _423  and  _424
REMARK  179  A    between atoms: _423  and  _426
REMARK  180  A    between atoms: _426  and  _427
REMARK  181  A    between atoms: _430  and  _432
REMARK  182  A    between atoms: _432  and  _433
REMARK  183  A    between atoms: _435  and  _437
REMARK  184  A    between atoms: _437  and  _438
REMARK  185  A    between atoms: _440  and  _442
REMARK  186  A    between atoms: _442  and  _443
REMARK  187  A    between atoms: _442  and  _445
REMARK  188  A    between atoms: _445  and  _446
REMARK  189  A    between atoms: _452  and  _454
REMARK  190  A    between atoms: _454  and  _455
REMARK  191  A    between atoms: _454  and  _457
REMARK  192  A    between atoms: _457  and  _458
REMARK  193  A    between atoms: _461  and  _463
REMARK  194  A    between atoms: _463  and  _464
REMARK  195  A    between atoms: _463  and  _466
REMARK  196  A    between atoms: _469  and  _471
REMARK  197  A    between atoms: _471  and  _472
REMARK  198  A    between atoms: _471  and  _474
REMARK  199  A    between atoms: _474  and  _475
REMARK  200  A    between atoms: _479  and  _480
REMARK  201  A    between atoms: _485  and  _487
REMARK  202  A    between atoms: _487  and  _488
REMARK  203  A    between atoms: _487  and  _490
REMARK  204  A    between atoms: _490  and  _491
REMARK  205  A    between atoms: _495  and  _496
REMARK  206  A    between atoms: _501  and  _503
REMARK  207  A    between atoms: _503  and  _504
REMARK  208  A    between atoms: _503  and  _506
REMARK  209  A    between atoms: _509  and  _511
REMARK  210  A    between atoms: _511  and  _512
REMARK  211  A    between atoms: _511  and  _514
REMARK  212  A    between atoms: _514  and  _515
REMARK  213  A    between atoms: _520  and  _522
REMARK  214  A    between atoms: _522  and  _523
REMARK  215  A    between atoms: _522  and  _525
REMARK  216  A    between atoms: _525  and  _526
REMARK  217  A    between atoms: _529  and  _531
REMARK  218  A    between atoms: _531  and  _532
REMARK  219  A    between atoms: _531  and  _534
REMARK  220  A    between atoms: _534  and  _535
REMARK  221  A    between atoms: _538  and  _540
REMARK  222  A    between atoms: _540  and  _541
REMARK  223  A    between atoms: _543  and  _545
REMARK  224  A    between atoms: _545  and  _546
REMARK  225  A    between atoms: _545  and  _548
REMARK  226  A    between atoms: _548  and  _549
REMARK  227  A    between atoms: _549  and  _550
REMARK  228  A    between atoms: _550  and  _551
REMARK  229  A    between atoms: _560  and  _562
REMARK  230  A    between atoms: _562  and  _563
REMARK  231  A    between atoms: _562  and  _565
REMARK  232  A    between atoms: _565  and  _566
REMARK                            x       y       z     vdW  Elec       q    Type
REMARK                         _______ _______ _______ _____ _____    ______ ____
ROOT
ATOM      1  O   HOH     1      25.476  10.393  20.831  0.00  0.00    +0.000 OA
ENDROOT
TORSDOF 0
REMARK  Name = ../refined-set-2016/1kzk/1kzk_pocket.pdb
REMARK  232 active torsions:
REMARK  status: ('A' for Active; 'I' for Inactive)
REMARK    1  A    between atoms: _1  and  _3
REMARK    2  A    between atoms: _3  and  _4
REMARK    3  A    between atoms: _3  and  _6
REMARK    4  A    between atoms: _6  and  _7
REMARK    5  A    between atoms: _7  and  _8
REMARK    6  A    between atoms: _8  and  _9
REMARK    7  A    between atoms: _18  and  _20
REMARK    8  A    between atoms: _20  and  _21
REMARK    9  A    between atoms: _20  and  _23
REMARK   10  A    between atoms: _23  and  _24
REMARK   11  A    between atoms: _27  and  _29
REMARK   12  A    between atoms: _29  and  _30
REMARK   13  A    between atoms: _29  and  _32
REMARK   14  A    between atoms: _32  and  _33
REMARK   15  A    between atoms: _36  and  _38
REMARK   16  A    between atoms: _38  and  _39
REMARK   17  A    between atoms: _38  and  _41
REMARK   18  A    between atoms: _41  and  _42
REMARK   19  A    between atoms: _45  and  _47
REMARK   20  A    between atoms: _47  and  _48
REMARK   21  A    between atoms: _47  and  _50
REMARK   22  A    between atoms: _50  and  _51
REMARK   23  A    between atoms: _54  and  _56
REMARK   24  A    between atoms: _56  and  _57
REMARK   25  A    between atoms: _59  and  _61
REMARK   26  A    between atoms: _61  and  _62
REMARK   27  A    between atoms: _65  and  _67
REMARK   28  A    between atoms: _67  and  _68
REMARK   29  A    between atoms: _67  and  _70
REMARK   30  A    between atoms: _70  and  _71
REMARK   31  A    between atoms: _74  and  _76
REMARK   32  A    between atoms: _76  and  _77
REMARK   33  A    between atoms: _76  and  _79
REMARK   34  A    between atoms: _79  and  _80
REMARK   35  A    between atoms: _83  and  _85
REMARK   36  A    between atoms: _85  and  _86
REMARK   37  A    between atoms: _85  and  _88
REMARK   38  A    between atoms: _88  and  _89
REMARK   39  A    between atoms: _92  and  _94
REMARK   40  A    between atoms: _94  and  _95
REMARK   41  A    between atoms: _94  and  _97
REMARK   42  A    between atoms: _100  and  _102
REMARK   43  A    between atoms: _102  and  _103
REMARK   44  A    between atoms: _102  and  _105
REMARK   45  A    between atoms: _106  and  _107
REMARK   46  A    between atoms: _107  and  _108
REMARK   47  A    between atoms: _108  and  _109
REMARK   48  A    between atoms: _113  and  _115
REMARK   49  A    between atoms: _115  and  _116
REMARK   50  A    between atoms: _115  and  _118
REMARK   51  A    between atoms: _118  and  _119
REMARK   52  A    between atoms: _119  and  _120
REMARK   53  A    between atoms: _122  and  _124
REMARK   54  A    between atoms: _124  and  _125
REMARK   55  A    between atoms: _124  and  _127
REMARK   56  A    between atoms: _127  and  _128
REMARK   57  A    between atoms: _131  and  _133
REMARK   58  A    between atoms: _133  and  _134
REMARK   59  A    between atoms: _136  and  _138
REMARK   60  A    between atoms: _138  and  _139
REMARK   61  A    between atoms: _141  and  _143
REMARK   62  A    between atoms: _143  and  _144
REMARK   63  A    between atoms: _143  and  _146
REMARK   64  A    between atoms: _146  and  _147
REMARK   65  A    between atoms: _150  and  _152
REMARK   66  A    between atoms: _152  and  _153
REMARK   67  A    between atoms: _155  and  _157
REMARK   68  A    between atoms: _157  and  _158
REMARK   69  A    between atoms: _160  and  _162
REMARK   70  A    between atoms: _162  and  _163
REMARK   71  A    between atoms: _162  and  _165
REMARK   72  A    between atoms: _165  and  _166
REMARK   73  A    between atoms: _169  and  _171
REMARK   74  A    between atoms: _171  and  _172
REMARK   75  A    between atoms: _171  and  _174
REMARK   76  A    between atoms: _177  and  _179
REMARK   77  A    between atoms: _179  and  _180
REMARK   78  A    between atoms: _179  and  _182
REMARK   79  A    between atoms: _182  and  _183
REMARK   80  A    between atoms: _186  and  _188
REMARK   81  A    between atoms: _188  and  _189
REMARK   82  A    between atoms: _188  and  _191
REMARK   83  A    between atoms: _191  and  _192
REMARK   84  A    between atoms: _196  and  _197
REMARK   85  A    between atoms: _202  and  _204
REMARK   86  A    between atoms: _204  and  _205
REMARK   87  A    between atoms: _204  and  _207
REMARK   88  A    between atoms: _210  and  _212
REMARK   89  A    between atoms: _212  and  _213
REMARK   90  A    between atoms: _212  and  _215
REMARK   91  A    between atoms: _215  and  _216
REMARK   92  A    between atoms: _221  and  _223
REMARK   93  A    between atoms: _223  and  _224
REMARK   94  A    between atoms: _223  and  _226
REMARK   95  A    between atoms: _226  and  _227
REMARK   96  A    between atoms: _230  and  _232
REMARK   97  A    between atoms: _232  and  _233
REMARK   98  A    between atoms: _232  and  _235
REMARK   99  A    between atoms: _235  and  _236
REMARK  100  A    between atoms: _239  and  _241
REMARK  101  A    between atoms: _241  and  _242
REMARK  102  A    between atoms: _244  and  _246
REMARK  103  A    between atoms: _246  and  _247
REMARK  104  A    between atoms: _246  and  _249
REMARK  105  A    between atoms: _249  and  _250
REMARK  106  A    between atoms: _250  and  _251
REMARK  107  A    between atoms: _251  and  _252
REMARK  108  A    between atoms: _261  and  _263
REMARK  109  A    between atoms: _263  and  _264
REMARK  110  A    between atoms: _263  and  _266
REMARK  111  A    between atoms: _266  and  _267
REMARK  112  A    between atoms: _272  and  _274
REMARK  113  A    between atoms: _274  and  _275
REMARK  114  A    between atoms: _274  and  _277
REMARK  115  A    between atoms: _277  and  _278
REMARK  116  A    between atoms: _278  and  _279
REMARK  117  A    between atoms: _279  and  _280
REMARK  118  A    between atoms: _289  and  _291
REMARK  119  A    between atoms: _291  and  _292
REMARK  120  A    between atoms: _291  and  _294
REMARK  121  A    between atoms: _294  and  _295
REMARK  122  A    between atoms: _298  and  _300
REMARK  123  A    between atoms: _300  and  _301
REMARK  124  A    between atoms: _300  and  _303
REMARK  125  A    between atoms: _303  and  _304
REMARK  126  A    between atoms: _307  and  _309
REMARK  127  A    between atoms: _309  and  _310
REMARK  128  A    between atoms: _309  and  _312
REMARK  129  A    between atoms: _312  and  _313
REMARK  130  A    between atoms: _316  and  _318
REMARK  131  A    between atoms: _318  and  _319
REMARK  132  A    between atoms: _318  and  _321
REMARK  133  A    between atoms: _321  and  _322
REMARK  134  A    between atoms: _325  and  _327
REMARK  135  A    between atoms: _327  and  _328
REMARK  136  A    between atoms: _330  and  _332
REMARK  137  A    between atoms: _332  and  _333
REMARK  138  A    between atoms: _336  and  _338
REMARK  139  A    between atoms: _338  and  _339
REMARK  140  A    between atoms: _338  and  _341
REMARK  141  A    between atoms: _341  and  _342
REMARK  142  A    between atoms: _345  and  _347
REMARK  143  A    between atoms: _347  and  _348
REMARK  144  A    between atoms: _347  and  _350
REMARK  145  A    between atoms: _350  and  _351
REMARK  146  A    between atoms: _354  and  _356
REMARK  147  A    between atoms: _356  and  _357
REMARK  148  A    between atoms: _356  and  _359
REMARK  149  A    between atoms: _359  and  _360
REMARK  150  A    between atoms: _363  and  _365
REMARK  151  A    between atoms: _365  and  _366
REMARK  152  A    between atoms: _365  and  _368
REMARK  153  A    between atoms: _371  and  _373
REMARK  154  A    between atoms: _373  and  _374
REMARK  155  A    between atoms: _373  and  _376
REMARK  156  A    between atoms: _376  and  _377
REMARK  157  A    between atoms: _380  and  _382
REMARK  158  A    between atoms: _382  and  _383
REMARK  159  A    between atoms: _382  and  _385
REMARK  160  A    between atoms: _385  and  _386
REMARK  161  A    between atoms: _386  and  _387
REMARK  162  A    between atoms: _387  and  _388
REMARK  163  A    between atoms: _388  and  _389
REMARK  164  A    between atoms: _393  and  _395
REMARK  165  A    between atoms: _395  and  _396
REMARK  166  A    between atoms: _395  and  _398
REMARK  167  A    between atoms: _398  and  _399
REMARK  168  A    between atoms: _399  and  _400
REMARK  169  A    between atoms: _402  and  _404
REMARK  170  A    between atoms: _404  and  _405
REMARK  171  A    between atoms: _404  and  _407
REMARK  172  A    between atoms: _407  and  _408
REMARK  173  A    between atoms: _411  and  _413
REMARK  174  A    between atoms: _413  and  _414
REMARK  175  A    between atoms: _416  and  _418
REMARK  176  A    between atoms: _418  and  _419
REMARK  177  A    between atoms: _421  and  _423
REMARK  178  A    between atoms: _423  and  _424
REMARK  179  A    between atoms: _423  and  _426
REMARK  180  A    between atoms: _426  and  _427
REMARK  181  A    between atoms: _430  and  _432
REMARK  182  A    between atoms: _432  and  _433
REMARK  183  A    between atoms: _435  and  _437
REMARK  184  A    between atoms: _437  and  _438
REMARK  185  A    between atoms: _440  and  _442
REMARK  186  A    between atoms: _442  and  _443
REMARK  187  A    between atoms: _442  and  _445
REMARK  188  A    between atoms: _445  and  _446
REMARK  189  A    between atoms: _452  and  _454
REMARK  190  A    between atoms: _454  and  _455
REMARK  191  A    between atoms: _454  and  _457
REMARK  192  A    between atoms: _457  and  _458
REMARK  193  A    between atoms: _461  and  _463
REMARK  194  A    between atoms: _463  and  _464
REMARK  195  A    between atoms: _463  and  _466
REMARK  196  A    between atoms: _469  and  _471
REMARK  197  A    between atoms: _471  and  _472
REMARK  198  A    between atoms: _471  and  _474
REMARK  199  A    between atoms: _474  and  _475
REMARK  200  A    between atoms: _479  and  _480
REMARK  201  A    between atoms: _485  and  _487
REMARK  202  A    between atoms: _487  and  _488
REMARK  203  A    between atoms: _487  and  _490
REMARK  204  A    between atoms: _490  and  _491
REMARK  205  A    between atoms: _495  and  _496
REMARK  206  A    between atoms: _501  and  _503
REMARK  207  A    between atoms: _503  and  _504
REMARK  208  A    between atoms: _503  and  _506
REMARK  209  A    between atoms: _509  and  _511
REMARK  210  A    between atoms: _511  and  _512
REMARK  211  A    between atoms: _511  and  _514
REMARK  212  A    between atoms: _514  and  _515
REMARK  213  A    between atoms: _520  and  _522
REMARK  214  A    between atoms: _522  and  _523
REMARK  215  A    between atoms: _522  and  _525
REMARK  216  A    between atoms: _525  and  _526
REMARK  217  A    between atoms: _529  and  _531
REMARK  218  A    between atoms: _531  and  _532
REMARK  219  A    between atoms: _531  and  _534
REMARK  220  A    between atoms: _534  and  _535
REMARK  221  A    between atoms: _538  and  _540
REMARK  222  A    between atoms: _540  and  _541
REMARK  223  A    between atoms: _543  and  _545
REMARK  224  A    between atoms: _545  and  _546
REMARK  225  A    between atoms: _545  and  _548
REMARK  226  A    between atoms: _548  and  _549
REMARK  227  A    between atoms: _549  and  _550
REMARK  228  A    between atoms: _550  and  _551
REMARK  229  A    between atoms: _560  and  _562
REMARK  230  A    between atoms: _562  and  _563
REMARK  231  A    between atoms: _562  and  _565
REMARK  232  A    between atoms: _565  and  _566
REMARK                            x       y       z     vdW  Elec       q    Type
REMARK                         _______ _______ _______ _____ _____    ______ ____
ROOT
ATOM      1  O   HOH     1      26.536   9.975  18.378  0.00  0.00    +0.000 OA
ENDROOT
TORSDOF 0
REMARK  Name = ../refined-set-2016/1kzk/1kzk_pocket.pdb
REMARK  232 active torsions:
REMARK  status: ('A' for Active; 'I' for Inactive)
REMARK    1  A    between atoms: _1  and  _3
REMARK    2  A    between atoms: _3  and  _4
REMARK    3  A    between atoms: _3  and  _6
REMARK    4  A    between atoms: _6  and  _7
REMARK    5  A    between atoms: _7  and  _8
REMARK    6  A    between atoms: _8  and  _9
REMARK    7  A    between atoms: _18  and  _20
REMARK    8  A    between atoms: _20  and  _21
REMARK    9  A    between atoms: _20  and  _23
REMARK   10  A    between atoms: _23  and  _24
REMARK   11  A    between atoms: _27  and  _29
REMARK   12  A    between atoms: _29  and  _30
REMARK   13  A    between atoms: _29  and  _32
REMARK   14  A    between atoms: _32  and  _33
REMARK   15  A    between atoms: _36  and  _38
REMARK   16  A    between atoms: _38  and  _39
REMARK   17  A    between atoms: _38  and  _41
REMARK   18  A    between atoms: _41  and  _42
REMARK   19  A    between atoms: _45  and  _47
REMARK   20  A    between atoms: _47  and  _48
REMARK   21  A    between atoms: _47  and  _50
REMARK   22  A    between atoms: _50  and  _51
REMARK   23  A    between atoms: _54  and  _56
REMARK   24  A    between atoms: _56  and  _57
REMARK   25  A    between atoms: _59  and  _61
REMARK   26  A    between atoms: _61  and  _62
REMARK   27  A    between atoms: _65  and  _67
REMARK   28  A    between atoms: _67  and  _68
REMARK   29  A    between atoms: _67  and  _70
REMARK   30  A    between atoms: _70  and  _71
REMARK   31  A    between atoms: _74  and  _76
REMARK   32  A    between atoms: _76  and  _77
REMARK   33  A    between atoms: _76  and  _79
REMARK   34  A    between atoms: _79  and  _80
REMARK   35  A    between atoms: _83  and  _85
REMARK   36  A    between atoms: _85  and  _86
REMARK   37  A    between atoms: _85  and  _88
REMARK   38  A    between atoms: _88  and  _89
REMARK   39  A    between atoms: _92  and  _94
REMARK   40  A    between atoms: _94  and  _95
REMARK   41  A    between atoms: _94  and  _97
REMARK   42  A    between atoms: _100  and  _102
REMARK   43  A    between atoms: _102  and  _103
REMARK   44  A    between atoms: _102  and  _105
REMARK   45  A    between atoms: _106  and  _107
REMARK   46  A    between atoms: _107  and  _108
REMARK   47  A    between atoms: _108  and  _109
REMARK   48  A    between atoms: _113  and  _115
REMARK   49  A    between atoms: _115  and  _116
REMARK   50  A    between atoms: _115  and  _118
REMARK   51  A    between atoms: _118  and  _119
REMARK   52  A    between atoms: _119  and  _120
REMARK   53  A    between atoms: _122  and  _124
REMARK   54  A    between atoms: _124  and  _125
REMARK   55  A    between atoms: _124  and  _127
REMARK   56  A    between atoms: _127  and  _128
REMARK   57  A    between atoms: _131  and  _133
REMARK   58  A    between atoms: _133  and  _134
REMARK   59  A    between atoms: _136  and  _138
REMARK   60  A    between atoms: _138  and  _139
REMARK   61  A    between atoms: _141  and  _143
REMARK   62  A    between atoms: _143  and  _144
REMARK   63  A    between atoms: _143  and  _146
REMARK   64  A    between atoms: _146  and  _147
REMARK   65  A    between atoms: _150  and  _152
REMARK   66  A    between atoms: _152  and  _153
REMARK   67  A    between atoms: _155  and  _157
REMARK   68  A    between atoms: _157  and  _158
REMARK   69  A    between atoms: _160  and  _162
REMARK   70  A    between atoms: _162  and  _163
REMARK   71  A    between atoms: _162  and  _165
REMARK   72  A    between atoms: _165  and  _166
REMARK   73  A    between atoms: _169  and  _171
REMARK   74  A    between atoms: _171  and  _172
REMARK   75  A    between atoms: _171  and  _174
REMARK   76  A    between atoms: _177  and  _179
REMARK   77  A    between atoms: _179  and  _180
REMARK   78  A    between atoms: _179  and  _182
REMARK   79  A    between atoms: _182  and  _183
REMARK   80  A    between atoms: _186  and  _188
REMARK   81  A    between atoms: _188  and  _189
REMARK   82  A    between atoms: _188  and  _191
REMARK   83  A    between atoms: _191  and  _192
REMARK   84  A    between atoms: _196  and  _197
REMARK   85  A    between atoms: _202  and  _204
REMARK   86  A    between atoms: _204  and  _205
REMARK   87  A    between atoms: _204  and  _207
REMARK   88  A    between atoms: _210  and  _212
REMARK   89  A    between atoms: _212  and  _213
REMARK   90  A    between atoms: _212  and  _215
REMARK   91  A    between atoms: _215  and  _216
REMARK   92  A    between atoms: _221  and  _223
REMARK   93  A    between atoms: _223  and  _224
REMARK   94  A    between atoms: _223  and  _226
REMARK   95  A    between atoms: _226  and  _227
REMARK   96  A    between atoms: _230  and  _232
REMARK   97  A    between atoms: _232  and  _233
REMARK   98  A    between atoms: _232  and  _235
REMARK   99  A    between atoms: _235  and  _236
REMARK  100  A    between atoms: _239  and  _241
REMARK  101  A    between atoms: _241  and  _242
REMARK  102  A    between atoms: _244  and  _246
REMARK  103  A    between atoms: _246  and  _247
REMARK  104  A    between atoms: _246  and  _249
REMARK  105  A    between atoms: _249  and  _250
REMARK  106  A    between atoms: _250  and  _251
REMARK  107  A    between atoms: _251  and  _252
REMARK  108  A    between atoms: _261  and  _263
REMARK  109  A    between atoms: _263  and  _264
REMARK  110  A    between atoms: _263  and  _266
REMARK  111  A    between atoms: _266  and  _267
REMARK  112  A    between atoms: _272  and  _274
REMARK  113  A    between atoms: _274  and  _275
REMARK  114  A    between atoms: _274  and  _277
REMARK  115  A    between atoms: _277  and  _278
REMARK  116  A    between atoms: _278  and  _279
REMARK  117  A    between atoms: _279  and  _280
REMARK  118  A    between atoms: _289  and  _291
REMARK  119  A    between atoms: _291  and  _292
REMARK  120  A    between atoms: _291  and  _294
REMARK  121  A    between atoms: _294  and  _295
REMARK  122  A    between atoms: _298  and  _300
REMARK  123  A    between atoms: _300  and  _301
REMARK  124  A    between atoms: _300  and  _303
REMARK  125  A    between atoms: _303  and  _304
REMARK  126  A    between atoms: _307  and  _309
REMARK  127  A    between atoms: _309  and  _310
REMARK  128  A    between atoms: _309  and  _312
REMARK  129  A    between atoms: _312  and  _313
REMARK  130  A    between atoms: _316  and  _318
REMARK  131  A    between atoms: _318  and  _319
REMARK  132  A    between atoms: _318  and  _321
REMARK  133  A    between atoms: _321  and  _322
REMARK  134  A    between atoms: _325  and  _327
REMARK  135  A    between atoms: _327  and  _328
REMARK  136  A    between atoms: _330  and  _332
REMARK  137  A    between atoms: _332  and  _333
REMARK  138  A    between atoms: _336  and  _338
REMARK  139  A    between atoms: _338  and  _339
REMARK  140  A    between atoms: _338  and  _341
REMARK  141  A    between atoms: _341  and  _342
REMARK  142  A    between atoms: _345  and  _347
REMARK  143  A    between atoms: _347  and  _348
REMARK  144  A    between atoms: _347  and  _350
REMARK  145  A    between atoms: _350  and  _351
REMARK  146  A    between atoms: _354  and  _356
REMARK  147  A    between atoms: _356  and  _357
REMARK  148  A    between atoms: _356  and  _359
REMARK  149  A    between atoms: _359  and  _360
REMARK  150  A    between atoms: _363  and  _365
REMARK  151  A    between atoms: _365  and  _366
REMARK  152  A    between atoms: _365  and  _368
REMARK  153  A    between atoms: _371  and  _373
REMARK  154  A    between atoms: _373  and  _374
REMARK  155  A    between atoms: _373  and  _376
REMARK  156  A    between atoms: _376  and  _377
REMARK  157  A    between atoms: _380  and  _382
REMARK  158  A    between atoms: _382  and  _383
REMARK  159  A    between atoms: _382  and  _385
REMARK  160  A    between atoms: _385  and  _386
REMARK  161  A    between atoms: _386  and  _387
REMARK  162  A    between atoms: _387  and  _388
REMARK  163  A    between atoms: _388  and  _389
REMARK  164  A    between atoms: _393  and  _395
REMARK  165  A    between atoms: _395  and  _396
REMARK  166  A    between atoms: _395  and  _398
REMARK  167  A    between atoms: _398  and  _399
REMARK  168  A    between atoms: _399  and  _400
REMARK  169  A    between atoms: _402  and  _404
REMARK  170  A    between atoms: _404  and  _405
REMARK  171  A    between atoms: _404  and  _407
REMARK  172  A    between atoms: _407  and  _408
REMARK  173  A    between atoms: _411  and  _413
REMARK  174  A    between atoms: _413  and  _414
REMARK  175  A    between atoms: _416  and  _418
REMARK  176  A    between atoms: _418  and  _419
REMARK  177  A    between atoms: _421  and  _423
REMARK  178  A    between atoms: _423  and  _424
REMARK  179  A    between atoms: _423  and  _426
REMARK  180  A    between atoms: _426  and  _427
REMARK  181  A    between atoms: _430  and  _432
REMARK  182  A    between atoms: _432  and  _433
REMARK  183  A    between atoms: _435  and  _437
REMARK  184  A    between atoms: _437  and  _438
REMARK  185  A    between atoms: _440  and  _442
REMARK  186  A    between atoms: _442  and  _443
REMARK  187  A    between atoms: _442  and  _445
REMARK  188  A    between atoms: _445  and  _446
REMARK  189  A    between atoms: _452  and  _454
REMARK  190  A    between atoms: _454  and  _455
REMARK  191  A    between atoms: _454  and  _457
REMARK  192  A    between atoms: _457  and  _458
REMARK  193  A    between atoms: _461  and  _463
REMARK  194  A    between atoms: _463  and  _464
REMARK  195  A    between atoms: _463  and  _466
REMARK  196  A    between atoms: _469  and  _471
REMARK  197  A    between atoms: _471  and  _472
REMARK  198  A    between atoms: _471  and  _474
REMARK  199  A    between atoms: _474  and  _475
REMARK  200  A    between atoms: _479  and  _480
REMARK  201  A    between atoms: _485  and  _487
REMARK  202  A    between atoms: _487  and  _488
REMARK  203  A    between atoms: _487  and  _490
REMARK  204  A    between atoms: _490  and  _491
REMARK  205  A    between atoms: _495  and  _496
REMARK  206  A    between atoms: _501  and  _503
REMARK  207  A    between atoms: _503  and  _504
REMARK  208  A    between atoms: _503  and  _506
REMARK  209  A    between atoms: _509  and  _511
REMARK  210  A    between atoms: _511  and  _512
REMARK  211  A    between atoms: _511  and  _514
REMARK  212  A    between atoms: _514  and  _515
REMARK  213  A    between atoms: _520  and  _522
REMARK  214  A    between atoms: _522  and  _523
REMARK  215  A    between atoms: _522  and  _525
REMARK  216  A    between atoms: _525  and  _526
REMARK  217  A    between atoms: _529  and  _531
REMARK  218  A    between atoms: _531  and  _532
REMARK  219  A    between atoms: _531  and  _534
REMARK  220  A    between atoms: _534  and  _535
REMARK  221  A    between atoms: _538  and  _540
REMARK  222  A    between atoms: _540  and  _541
REMARK  223  A    between atoms: _543  and  _545
REMARK  224  A    between atoms: _545  and  _546
REMARK  225  A    between atoms: _545  and  _548
REMARK  226  A    between atoms: _548  and  _549
REMARK  227  A    between atoms: _549  and  _550
REMARK  228  A    between atoms: _550  and  _551
REMARK  229  A    between atoms: _560  and  _562
REMARK  230  A    between atoms: _562  and  _563
REMARK  231  A    between atoms: _562  and  _565
REMARK  232  A    between atoms: _565  and  _566
REMARK                            x       y       z     vdW  Elec       q    Type
REMARK                         _______ _______ _______ _____ _____    ______ ____
ROOT
ATOM      1  O   HOH     1      23.967   7.436  23.208  0.00  0.00    +0.000 OA
ENDROOT
TORSDOF 0
REMARK  Name = ../refined-set-2016/1kzk/1kzk_pocket.pdb
REMARK  232 active torsions:
REMARK  status: ('A' for Active; 'I' for Inactive)
REMARK    1  A    between atoms: _1  and  _3
REMARK    2  A    between atoms: _3  and  _4
REMARK    3  A    between atoms: _3  and  _6
REMARK    4  A    between atoms: _6  and  _7
REMARK    5  A    between atoms: _7  and  _8
REMARK    6  A    between atoms: _8  and  _9
REMARK    7  A    between atoms: _18  and  _20
REMARK    8  A    between atoms: _20  and  _21
REMARK    9  A    between atoms: _20  and  _23
REMARK   10  A    between atoms: _23  and  _24
REMARK   11  A    between atoms: _27  and  _29
REMARK   12  A    between atoms: _29  and  _30
REMARK   13  A    between atoms: _29  and  _32
REMARK   14  A    between atoms: _32  and  _33
REMARK   15  A    between atoms: _36  and  _38
REMARK   16  A    between atoms: _38  and  _39
REMARK   17  A    between atoms: _38  and  _41
REMARK   18  A    between atoms: _41  and  _42
REMARK   19  A    between atoms: _45  and  _47
REMARK   20  A    between atoms: _47  and  _48
REMARK   21  A    between atoms: _47  and  _50
REMARK   22  A    between atoms: _50  and  _51
REMARK   23  A    between atoms: _54  and  _56
REMARK   24  A    between atoms: _56  and  _57
REMARK   25  A    between atoms: _59  and  _61
REMARK   26  A    between atoms: _61  and  _62
REMARK   27  A    between atoms: _65  and  _67
REMARK   28  A    between atoms: _67  and  _68
REMARK   29  A    between atoms: _67  and  _70
REMARK   30  A    between atoms: _70  and  _71
REMARK   31  A    between atoms: _74  and  _76
REMARK   32  A    between atoms: _76  and  _77
REMARK   33  A    between atoms: _76  and  _79
REMARK   34  A    between atoms: _79  and  _80
REMARK   35  A    between atoms: _83  and  _85
REMARK   36  A    between atoms: _85  and  _86
REMARK   37  A    between atoms: _85  and  _88
REMARK   38  A    between atoms: _88  and  _89
REMARK   39  A    between atoms: _92  and  _94
REMARK   40  A    between atoms: _94  and  _95
REMARK   41  A    between atoms: _94  and  _97
REMARK   42  A    between atoms: _100  and  _102
REMARK   43  A    between atoms: _102  and  _103
REMARK   44  A    between atoms: _102  and  _105
REMARK   45  A    between atoms: _106  and  _107
REMARK   46  A    between atoms: _107  and  _108
REMARK   47  A    between atoms: _108  and  _109
REMARK   48  A    between atoms: _113  and  _115
REMARK   49  A    between atoms: _115  and  _116
REMARK   50  A    between atoms: _115  and  _118
REMARK   51  A    between atoms: _118  and  _119
REMARK   52  A    between atoms: _119  and  _120
REMARK   53  A    between atoms: _122  and  _124
REMARK   54  A    between atoms: _124  and  _125
REMARK   55  A    between atoms: _124  and  _127
REMARK   56  A    between atoms: _127  and  _128
REMARK   57  A    between atoms: _131  and  _133
REMARK   58  A    between atoms: _133  and  _134
REMARK   59  A    between atoms: _136  and  _138
REMARK   60  A    between atoms: _138  and  _139
REMARK   61  A    between atoms: _141  and  _143
REMARK   62  A    between atoms: _143  and  _144
REMARK   63  A    between atoms: _143  and  _146
REMARK   64  A    between atoms: _146  and  _147
REMARK   65  A    between atoms: _150  and  _152
REMARK   66  A    between atoms: _152  and  _153
REMARK   67  A    between atoms: _155  and  _157
REMARK   68  A    between atoms: _157  and  _158
REMARK   69  A    between atoms: _160  and  _162
REMARK   70  A    between atoms: _162  and  _163
REMARK   71  A    between atoms: _162  and  _165
REMARK   72  A    between atoms: _165  and  _166
REMARK   73  A    between atoms: _169  and  _171
REMARK   74  A    between atoms: _171  and  _172
REMARK   75  A    between atoms: _171  and  _174
REMARK   76  A    between atoms: _177  and  _179
REMARK   77  A    between atoms: _179  and  _180
REMARK   78  A    between atoms: _179  and  _182
REMARK   79  A    between atoms: _182  and  _183
REMARK   80  A    between atoms: _186  and  _188
REMARK   81  A    between atoms: _188  and  _189
REMARK   82  A    between atoms: _188  and  _191
REMARK   83  A    between atoms: _191  and  _192
REMARK   84  A    between atoms: _196  and  _197
REMARK   85  A    between atoms: _202  and  _204
REMARK   86  A    between atoms: _204  and  _205
REMARK   87  A    between atoms: _204  and  _207
REMARK   88  A    between atoms: _210  and  _212
REMARK   89  A    between atoms: _212  and  _213
REMARK   90  A    between atoms: _212  and  _215
REMARK   91  A    between atoms: _215  and  _216
REMARK   92  A    between atoms: _221  and  _223
REMARK   93  A    between atoms: _223  and  _224
REMARK   94  A    between atoms: _223  and  _226
REMARK   95  A    between atoms: _226  and  _227
REMARK   96  A    between atoms: _230  and  _232
REMARK   97  A    between atoms: _232  and  _233
REMARK   98  A    between atoms: _232  and  _235
REMARK   99  A    between atoms: _235  and  _236
REMARK  100  A    between atoms: _239  and  _241
REMARK  101  A    between atoms: _241  and  _242
REMARK  102  A    between atoms: _244  and  _246
REMARK  103  A    between atoms: _246  and  _247
REMARK  104  A    between atoms: _246  and  _249
REMARK  105  A    between atoms: _249  and  _250
REMARK  106  A    between atoms: _250  and  _251
REMARK  107  A    between atoms: _251  and  _252
REMARK  108  A    between atoms: _261  and  _263
REMARK  109  A    between atoms: _263  and  _264
REMARK  110  A    between atoms: _263  and  _266
REMARK  111  A    between atoms: _266  and  _267
REMARK  112  A    between atoms: _272  and  _274
REMARK  113  A    between atoms: _274  and  _275
REMARK  114  A    between atoms: _274  and  _277
REMARK  115  A    between atoms: _277  and  _278
REMARK  116  A    between atoms: _278  and  _279
REMARK  117  A    between atoms: _279  and  _280
REMARK  118  A    between atoms: _289  and  _291
REMARK  119  A    between atoms: _291  and  _292
REMARK  120  A    between atoms: _291  and  _294
REMARK  121  A    between atoms: _294  and  _295
REMARK  122  A    between atoms: _298  and  _300
REMARK  123  A    between atoms: _300  and  _301
REMARK  124  A    between atoms: _300  and  _303
REMARK  125  A    between atoms: _303  and  _304
REMARK  126  A    between atoms: _307  and  _309
REMARK  127  A    between atoms: _309  and  _310
REMARK  128  A    between atoms: _309  and  _312
REMARK  129  A    between atoms: _312  and  _313
REMARK  130  A    between atoms: _316  and  _318
REMARK  131  A    between atoms: _318  and  _319
REMARK  132  A    between atoms: _318  and  _321
REMARK  133  A    between atoms: _321  and  _322
REMARK  134  A    between atoms: _325  and  _327
REMARK  135  A    between atoms: _327  and  _328
REMARK  136  A    between atoms: _330  and  _332
REMARK  137  A    between atoms: _332  and  _333
REMARK  138  A    between atoms: _336  and  _338
REMARK  139  A    between atoms: _338  and  _339
REMARK  140  A    between atoms: _338  and  _341
REMARK  141  A    between atoms: _341  and  _342
REMARK  142  A    between atoms: _345  and  _347
REMARK  143  A    between atoms: _347  and  _348
REMARK  144  A    between atoms: _347  and  _350
REMARK  145  A    between atoms: _350  and  _351
REMARK  146  A    between atoms: _354  and  _356
REMARK  147  A    between atoms: _356  and  _357
REMARK  148  A    between atoms: _356  and  _359
REMARK  149  A    between atoms: _359  and  _360
REMARK  150  A    between atoms: _363  and  _365
REMARK  151  A    between atoms: _365  and  _366
REMARK  152  A    between atoms: _365  and  _368
REMARK  153  A    between atoms: _371  and  _373
REMARK  154  A    between atoms: _373  and  _374
REMARK  155  A    between atoms: _373  and  _376
REMARK  156  A    between atoms: _376  and  _377
REMARK  157  A    between atoms: _380  and  _382
REMARK  158  A    between atoms: _382  and  _383
REMARK  159  A    between atoms: _382  and  _385
REMARK  160  A    between atoms: _385  and  _386
REMARK  161  A    between atoms: _386  and  _387
REMARK  162  A    between atoms: _387  and  _388
REMARK  163  A    between atoms: _388  and  _389
REMARK  164  A    between atoms: _393  and  _395
REMARK  165  A    between atoms: _395  and  _396
REMARK  166  A    between atoms: _395  and  _398
REMARK  167  A    between atoms: _398  and  _399
REMARK  168  A    between atoms: _399  and  _400
REMARK  169  A    between atoms: _402  and  _404
REMARK  170  A    between atoms: _404  and  _405
REMARK  171  A    between atoms: _404  and  _407
REMARK  172  A    between atoms: _407  and  _408
REMARK  173  A    between atoms: _411  and  _413
REMARK  174  A    between atoms: _413  and  _414
REMARK  175  A    between atoms: _416  and  _418
REMARK  176  A    between atoms: _418  and  _419
REMARK  177  A    between atoms: _421  and  _423
REMARK  178  A    between atoms: _423  and  _424
REMARK  179  A    between atoms: _423  and  _426
REMARK  180  A    between atoms: _426  and  _427
REMARK  181  A    between atoms: _430  and  _432
REMARK  182  A    between atoms: _432  and  _433
REMARK  183  A    between atoms: _435  and  _437
REMARK  184  A    between atoms: _437  and  _438
REMARK  185  A    between atoms: _440  and  _442
REMARK  186  A    between atoms: _442  and  _443
REMARK  187  A    between atoms: _442  and  _445
REMARK  188  A    between atoms: _445  and  _446
REMARK  189  A    between atoms: _452  and  _454
REMARK  190  A    between atoms: _454  and  _455
REMARK  191  A    between atoms: _454  and  _457
REMARK  192  A    between atoms: _457  and  _458
REMARK  193  A    between atoms: _461  and  _463
REMARK  194  A    between atoms: _463  and  _464
REMARK  195  A    between atoms: _463  and  _466
REMARK  196  A    between atoms: _469  and  _471
REMARK  197  A    between atoms: _471  and  _472
REMARK  198  A    between atoms: _471  and  _474
REMARK  199  A    between atoms: _474  and  _475
REMARK  200  A    between atoms: _479  and  _480
REMARK  201  A    between atoms: _485  and  _487
REMARK  202  A    between atoms: _487  and  _488
REMARK  203  A    between atoms: _487  and  _490
REMARK  204  A    between atoms: _490  and  _491
REMARK  205  A    between atoms: _495  and  _496
REMARK  206  A    between atoms: _501  and  _503
REMARK  207  A    between atoms: _503  and  _504
REMARK  208  A    between atoms: _503  and  _506
REMARK  209  A    between atoms: _509  and  _511
REMARK  210  A    between atoms: _511  and  _512
REMARK  211  A    between atoms: _511  and  _514
REMARK  212  A    between atoms: _514  and  _515
REMARK  213  A    between atoms: _520  and  _522
REMARK  214  A    between atoms: _522  and  _523
REMARK  215  A    between atoms: _522  and  _525
REMARK  216  A    between atoms: _525  and  _526
REMARK  217  A    between atoms: _529  and  _531
REMARK  218  A    between atoms: _531  and  _532
REMARK  219  A    between atoms: _531  and  _534
REMARK  220  A    between atoms: _534  and  _535
REMARK  221  A    between atoms: _538  and  _540
REMARK  222  A    between atoms: _540  and  _541
REMARK  223  A    between atoms: _543  and  _545
REMARK  224  A    between atoms: _545  and  _546
REMARK  225  A    between atoms: _545  and  _548
REMARK  226  A    between atoms: _548  and  _549
REMARK  227  A    between atoms: _549  and  _550
REMARK  228  A    between atoms: _550  and  _551
REMARK  229  A    between atoms: _560  and  _562
REMARK  230  A    between atoms: _562  and  _563
REMARK  231  A    between atoms: _562  and  _565
REMARK  232  A    between atoms: _565  and  _566
REMARK                            x       y       z     vdW  Elec       q    Type
REMARK                         _______ _______ _______ _____ _____    ______ ____
ROOT
ATOM      1  O   HOH     1      18.322  -0.404  25.360  0.00  0.00    +0.000 OA
ENDROOT
TORSDOF 0
REMARK  Name = ../refined-set-2016/1kzk/1kzk_pocket.pdb
REMARK  232 active torsions:
REMARK  status: ('A' for Active; 'I' for Inactive)
REMARK    1  A    between atoms: _1  and  _3
REMARK    2  A    between atoms: _3  and  _4
REMARK    3  A    between atoms: _3  and  _6
REMARK    4  A    between atoms: _6  and  _7
REMARK    5  A    between atoms: _7  and  _8
REMARK    6  A    between atoms: _8  and  _9
REMARK    7  A    between atoms: _18  and  _20
REMARK    8  A    between atoms: _20  and  _21
REMARK    9  A    between atoms: _20  and  _23
REMARK   10  A    between atoms: _23  and  _24
REMARK   11  A    between atoms: _27  and  _29
REMARK   12  A    between atoms: _29  and  _30
REMARK   13  A    between atoms: _29  and  _32
REMARK   14  A    between atoms: _32  and  _33
REMARK   15  A    between atoms: _36  and  _38
REMARK   16  A    between atoms: _38  and  _39
REMARK   17  A    between atoms: _38  and  _41
REMARK   18  A    between atoms: _41  and  _42
REMARK   19  A    between atoms: _45  and  _47
REMARK   20  A    between atoms: _47  and  _48
REMARK   21  A    between atoms: _47  and  _50
REMARK   22  A    between atoms: _50  and  _51
REMARK   23  A    between atoms: _54  and  _56
REMARK   24  A    between atoms: _56  and  _57
REMARK   25  A    between atoms: _59  and  _61
REMARK   26  A    between atoms: _61  and  _62
REMARK   27  A    between atoms: _65  and  _67
REMARK   28  A    between atoms: _67  and  _68
REMARK   29  A    between atoms: _67  and  _70
REMARK   30  A    between atoms: _70  and  _71
REMARK   31  A    between atoms: _74  and  _76
REMARK   32  A    between atoms: _76  and  _77
REMARK   33  A    between atoms: _76  and  _79
REMARK   34  A    between atoms: _79  and  _80
REMARK   35  A    between atoms: _83  and  _85
REMARK   36  A    between atoms: _85  and  _86
REMARK   37  A    between atoms: _85  and  _88
REMARK   38  A    between atoms: _88  and  _89
REMARK   39  A    between atoms: _92  and  _94
REMARK   40  A    between atoms: _94  and  _95
REMARK   41  A    between atoms: _94  and  _97
REMARK   42  A    between atoms: _100  and  _102
REMARK   43  A    between atoms: _102  and  _103
REMARK   44  A    between atoms: _102  and  _105
REMARK   45  A    between atoms: _106  and  _107
REMARK   46  A    between atoms: _107  and  _108
REMARK   47  A    between atoms: _108  and  _109
REMARK   48  A    between atoms: _113  and  _115
REMARK   49  A    between atoms: _115  and  _116
REMARK   50  A    between atoms: _115  and  _118
REMARK   51  A    between atoms: _118  and  _119
REMARK   52  A    between atoms: _119  and  _120
REMARK   53  A    between atoms: _122  and  _124
REMARK   54  A    between atoms: _124  and  _125
REMARK   55  A    between atoms: _124  and  _127
REMARK   56  A    between atoms: _127  and  _128
REMARK   57  A    between atoms: _131  and  _133
REMARK   58  A    between atoms: _133  and  _134
REMARK   59  A    between atoms: _136  and  _138
REMARK   60  A    between atoms: _138  and  _139
REMARK   61  A    between atoms: _141  and  _143
REMARK   62  A    between atoms: _143  and  _144
REMARK   63  A    between atoms: _143  and  _146
REMARK   64  A    between atoms: _146  and  _147
REMARK   65  A    between atoms: _150  and  _152
REMARK   66  A    between atoms: _152  and  _153
REMARK   67  A    between atoms: _155  and  _157
REMARK   68  A    between atoms: _157  and  _158
REMARK   69  A    between atoms: _160  and  _162
REMARK   70  A    between atoms: _162  and  _163
REMARK   71  A    between atoms: _162  and  _165
REMARK   72  A    between atoms: _165  and  _166
REMARK   73  A    between atoms: _169  and  _171
REMARK   74  A    between atoms: _171  and  _172
REMARK   75  A    between atoms: _171  and  _174
REMARK   76  A    between atoms: _177  and  _179
REMARK   77  A    between atoms: _179  and  _180
REMARK   78  A    between atoms: _179  and  _182
REMARK   79  A    between atoms: _182  and  _183
REMARK   80  A    between atoms: _186  and  _188
REMARK   81  A    between atoms: _188  and  _189
REMARK   82  A    between atoms: _188  and  _191
REMARK   83  A    between atoms: _191  and  _192
REMARK   84  A    between atoms: _196  and  _197
REMARK   85  A    between atoms: _202  and  _204
REMARK   86  A    between atoms: _204  and  _205
REMARK   87  A    between atoms: _204  and  _207
REMARK   88  A    between atoms: _210  and  _212
REMARK   89  A    between atoms: _212  and  _213
REMARK   90  A    between atoms: _212  and  _215
REMARK   91  A    between atoms: _215  and  _216
REMARK   92  A    between atoms: _221  and  _223
REMARK   93  A    between atoms: _223  and  _224
REMARK   94  A    between atoms: _223  and  _226
REMARK   95  A    between atoms: _226  and  _227
REMARK   96  A    between atoms: _230  and  _232
REMARK   97  A    between atoms: _232  and  _233
REMARK   98  A    between atoms: _232  and  _235
REMARK   99  A    between atoms: _235  and  _236
REMARK  100  A    between atoms: _239  and  _241
REMARK  101  A    between atoms: _241  and  _242
REMARK  102  A    between atoms: _244  and  _246
REMARK  103  A    between atoms: _246  and  _247
REMARK  104  A    between atoms: _246  and  _249
REMARK  105  A    between atoms: _249  and  _250
REMARK  106  A    between atoms: _250  and  _251
REMARK  107  A    between atoms: _251  and  _252
REMARK  108  A    between atoms: _261  and  _263
REMARK  109  A    between atoms: _263  and  _264
REMARK  110  A    between atoms: _263  and  _266
REMARK  111  A    between atoms: _266  and  _267
REMARK  112  A    between atoms: _272  and  _274
REMARK  113  A    between atoms: _274  and  _275
REMARK  114  A    between atoms: _274  and  _277
REMARK  115  A    between atoms: _277  and  _278
REMARK  116  A    between atoms: _278  and  _279
REMARK  117  A    between atoms: _279  and  _280
REMARK  118  A    between atoms: _289  and  _291
REMARK  119  A    between atoms: _291  and  _292
REMARK  120  A    between atoms: _291  and  _294
REMARK  121  A    between atoms: _294  and  _295
REMARK  122  A    between atoms: _298  and  _300
REMARK  123  A    between atoms: _300  and  _301
REMARK  124  A    between atoms: _300  and  _303
REMARK  125  A    between atoms: _303  and  _304
REMARK  126  A    between atoms: _307  and  _309
REMARK  127  A    between atoms: _309  and  _310
REMARK  128  A    between atoms: _309  and  _312
REMARK  129  A    between atoms: _312  and  _313
REMARK  130  A    between atoms: _316  and  _318
REMARK  131  A    between atoms: _318  and  _319
REMARK  132  A    between atoms: _318  and  _321
REMARK  133  A    between atoms: _321  and  _322
REMARK  134  A    between atoms: _325  and  _327
REMARK  135  A    between atoms: _327  and  _328
REMARK  136  A    between atoms: _330  and  _332
REMARK  137  A    between atoms: _332  and  _333
REMARK  138  A    between atoms: _336  and  _338
REMARK  139  A    between atoms: _338  and  _339
REMARK  140  A    between atoms: _338  and  _341
REMARK  141  A    between atoms: _341  and  _342
REMARK  142  A    between atoms: _345  and  _347
REMARK  143  A    between atoms: _347  and  _348
REMARK  144  A    between atoms: _347  and  _350
REMARK  145  A    between atoms: _350  and  _351
REMARK  146  A    between atoms: _354  and  _356
REMARK  147  A    between atoms: _356  and  _357
REMARK  148  A    between atoms: _356  and  _359
REMARK  149  A    between atoms: _359  and  _360
REMARK  150  A    between atoms: _363  and  _365
REMARK  151  A    between atoms: _365  and  _366
REMARK  152  A    between atoms: _365  and  _368
REMARK  153  A    between atoms: _371  and  _373
REMARK  154  A    between atoms: _373  and  _374
REMARK  155  A    between atoms: _373  and  _376
REMARK  156  A    between atoms: _376  and  _377
REMARK  157  A    between atoms: _380  and  _382
REMARK  158  A    between atoms: _382  and  _383
REMARK  159  A    between atoms: _382  and  _385
REMARK  160  A    between atoms: _385  and  _386
REMARK  161  A    between atoms: _386  and  _387
REMARK  162  A    between atoms: _387  and  _388
REMARK  163  A    between atoms: _388  and  _389
REMARK  164  A    between atoms: _393  and  _395
REMARK  165  A    between atoms: _395  and  _396
REMARK  166  A    between atoms: _395  and  _398
REMARK  167  A    between atoms: _398  and  _399
REMARK  168  A    between atoms: _399  and  _400
REMARK  169  A    between atoms: _402  and  _404
REMARK  170  A    between atoms: _404  and  _405
REMARK  171  A    between atoms: _404  and  _407
REMARK  172  A    between atoms: _407  and  _408
REMARK  173  A    between atoms: _411  and  _413
REMARK  174  A    between atoms: _413  and  _414
REMARK  175  A    between atoms: _416  and  _418
REMARK  176  A    between atoms: _418  and  _419
REMARK  177  A    between atoms: _421  and  _423
REMARK  178  A    between atoms: _423  and  _424
REMARK  179  A    between atoms: _423  and  _426
REMARK  180  A    between atoms: _426  and  _427
REMARK  181  A    between atoms: _430  and  _432
REMARK  182  A    between atoms: _432  and  _433
REMARK  183  A    between atoms: _435  and  _437
REMARK  184  A    between atoms: _437  and  _438
REMARK  185  A    between atoms: _440  and  _442
REMARK  186  A    between atoms: _442  and  _443
REMARK  187  A    between atoms: _442  and  _445
REMARK  188  A    between atoms: _445  and  _446
REMARK  189  A    between atoms: _452  and  _454
REMARK  190  A    between atoms: _454  and  _455
REMARK  191  A    between atoms: _454  and  _457
REMARK  192  A    between atoms: _457  and  _458
REMARK  193  A    between atoms: _461  and  _463
REMARK  194  A    between atoms: _463  and  _464
REMARK  195  A    between atoms: _463  and  _466
REMARK  196  A    between atoms: _469  and  _471
REMARK  197  A    between atoms: _471  and  _472
REMARK  198  A    between atoms: _471  and  _474
REMARK  199  A    between atoms: _474  and  _475
REMARK  200  A    between atoms: _479  and  _480
REMARK  201  A    between atoms: _485  and  _487
REMARK  202  A    between atoms: _487  and  _488
REMARK  203  A    between atoms: _487  and  _490
REMARK  204  A    between atoms: _490  and  _491
REMARK  205  A    between atoms: _495  and  _496
REMARK  206  A    between atoms: _501  and  _503
REMARK  207  A    between atoms: _503  and  _504
REMARK  208  A    between atoms: _503  and  _506
REMARK  209  A    between atoms: _509  and  _511
REMARK  210  A    between atoms: _511  and  _512
REMARK  211  A    between atoms: _511  and  _514
REMARK  212  A    between atoms: _514  and  _515
REMARK  213  A    between atoms: _520  and  _522
REMARK  214  A    between atoms: _522  and  _523
REMARK  215  A    between atoms: _522  and  _525
REMARK  216  A    between atoms: _525  and  _526
REMARK  217  A    between atoms: _529  and  _531
REMARK  218  A    between atoms: _531  and  _532
REMARK  219  A    between atoms: _531  and  _534
REMARK  220  A    between atoms: _534  and  _535
REMARK  221  A    between atoms: _538  and  _540
REMARK  222  A    between atoms: _540  and  _541
REMARK  223  A    between atoms: _543  and  _545
REMARK  224  A    between atoms: _545  and  _546
REMARK  225  A    between atoms: _545  and  _548
REMARK  226  A    between atoms: _548  and  _549
REMARK  227  A    between atoms: _549  and  _550
REMARK  228  A    between atoms: _550  and  _551
REMARK  229  A    between atoms: _560  and  _562
REMARK  230  A    between atoms: _562  and  _563
REMARK  231  A    between atoms: _562  and  _565
REMARK  232  A    between atoms: _565  and  _566
REMARK                            x       y       z     vdW  Elec       q    Type
REMARK                         _______ _______ _______ _____ _____    ______ ____
ROOT
ATOM      1  O   HOH     1      20.598  -3.420  18.914  0.00  0.00    +0.000 OA
ENDROOT
TORSDOF 0
REMARK  Name = ../refined-set-2016/1kzk/1kzk_pocket.pdb
REMARK  232 active torsions:
REMARK  status: ('A' for Active; 'I' for Inactive)
REMARK    1  A    between atoms: _1  and  _3
REMARK    2  A    between atoms: _3  and  _4
REMARK    3  A    between atoms: _3  and  _6
REMARK    4  A    between atoms: _6  and  _7
REMARK    5  A    between atoms: _7  and  _8
REMARK    6  A    between atoms: _8  and  _9
REMARK    7  A    between atoms: _18  and  _20
REMARK    8  A    between atoms: _20  and  _21
REMARK    9  A    between atoms: _20  and  _23
REMARK   10  A    between atoms: _23  and  _24
REMARK   11  A    between atoms: _27  and  _29
REMARK   12  A    between atoms: _29  and  _30
REMARK   13  A    between atoms: _29  and  _32
REMARK   14  A    between atoms: _32  and  _33
REMARK   15  A    between atoms: _36  and  _38
REMARK   16  A    between atoms: _38  and  _39
REMARK   17  A    between atoms: _38  and  _41
REMARK   18  A    between atoms: _41  and  _42
REMARK   19  A    between atoms: _45  and  _47
REMARK   20  A    between atoms: _47  and  _48
REMARK   21  A    between atoms: _47  and  _50
REMARK   22  A    between atoms: _50  and  _51
REMARK   23  A    between atoms: _54  and  _56
REMARK   24  A    between atoms: _56  and  _57
REMARK   25  A    between atoms: _59  and  _61
REMARK   26  A    between atoms: _61  and  _62
REMARK   27  A    between atoms: _65  and  _67
REMARK   28  A    between atoms: _67  and  _68
REMARK   29  A    between atoms: _67  and  _70
REMARK   30  A    between atoms: _70  and  _71
REMARK   31  A    between atoms: _74  and  _76
REMARK   32  A    between atoms: _76  and  _77
REMARK   33  A    between atoms: _76  and  _79
REMARK   34  A    between atoms: _79  and  _80
REMARK   35  A    between atoms: _83  and  _85
REMARK   36  A    between atoms: _85  and  _86
REMARK   37  A    between atoms: _85  and  _88
REMARK   38  A    between atoms: _88  and  _89
REMARK   39  A    between atoms: _92  and  _94
REMARK   40  A    between atoms: _94  and  _95
REMARK   41  A    between atoms: _94  and  _97
REMARK   42  A    between atoms: _100  and  _102
REMARK   43  A    between atoms: _102  and  _103
REMARK   44  A    between atoms: _102  and  _105
REMARK   45  A    between atoms: _106  and  _107
REMARK   46  A    between atoms: _107  and  _108
REMARK   47  A    between atoms: _108  and  _109
REMARK   48  A    between atoms: _113  and  _115
REMARK   49  A    between atoms: _115  and  _116
REMARK   50  A    between atoms: _115  and  _118
REMARK   51  A    between atoms: _118  and  _119
REMARK   52  A    between atoms: _119  and  _120
REMARK   53  A    between atoms: _122  and  _124
REMARK   54  A    between atoms: _124  and  _125
REMARK   55  A    between atoms: _124  and  _127
REMARK   56  A    between atoms: _127  and  _128
REMARK   57  A    between atoms: _131  and  _133
REMARK   58  A    between atoms: _133  and  _134
REMARK   59  A    between atoms: _136  and  _138
REMARK   60  A    between atoms: _138  and  _139
REMARK   61  A    between atoms: _141  and  _143
REMARK   62  A    between atoms: _143  and  _144
REMARK   63  A    between atoms: _143  and  _146
REMARK   64  A    between atoms: _146  and  _147
REMARK   65  A    between atoms: _150  and  _152
REMARK   66  A    between atoms: _152  and  _153
REMARK   67  A    between atoms: _155  and  _157
REMARK   68  A    between atoms: _157  and  _158
REMARK   69  A    between atoms: _160  and  _162
REMARK   70  A    between atoms: _162  and  _163
REMARK   71  A    between atoms: _162  and  _165
REMARK   72  A    between atoms: _165  and  _166
REMARK   73  A    between atoms: _169  and  _171
REMARK   74  A    between atoms: _171  and  _172
REMARK   75  A    between atoms: _171  and  _174
REMARK   76  A    between atoms: _177  and  _179
REMARK   77  A    between atoms: _179  and  _180
REMARK   78  A    between atoms: _179  and  _182
REMARK   79  A    between atoms: _182  and  _183
REMARK   80  A    between atoms: _186  and  _188
REMARK   81  A    between atoms: _188  and  _189
REMARK   82  A    between atoms: _188  and  _191
REMARK   83  A    between atoms: _191  and  _192
REMARK   84  A    between atoms: _196  and  _197
REMARK   85  A    between atoms: _202  and  _204
REMARK   86  A    between atoms: _204  and  _205
REMARK   87  A    between atoms: _204  and  _207
REMARK   88  A    between atoms: _210  and  _212
REMARK   89  A    between atoms: _212  and  _213
REMARK   90  A    between atoms: _212  and  _215
REMARK   91  A    between atoms: _215  and  _216
REMARK   92  A    between atoms: _221  and  _223
REMARK   93  A    between atoms: _223  and  _224
REMARK   94  A    between atoms: _223  and  _226
REMARK   95  A    between atoms: _226  and  _227
REMARK   96  A    between atoms: _230  and  _232
REMARK   97  A    between atoms: _232  and  _233
REMARK   98  A    between atoms: _232  and  _235
REMARK   99  A    between atoms: _235  and  _236
REMARK  100  A    between atoms: _239  and  _241
REMARK  101  A    between atoms: _241  and  _242
REMARK  102  A    between atoms: _244  and  _246
REMARK  103  A    between atoms: _246  and  _247
REMARK  104  A    between atoms: _246  and  _249
REMARK  105  A    between atoms: _249  and  _250
REMARK  106  A    between atoms: _250  and  _251
REMARK  107  A    between atoms: _251  and  _252
REMARK  108  A    between atoms: _261  and  _263
REMARK  109  A    between atoms: _263  and  _264
REMARK  110  A    between atoms: _263  and  _266
REMARK  111  A    between atoms: _266  and  _267
REMARK  112  A    between atoms: _272  and  _274
REMARK  113  A    between atoms: _274  and  _275
REMARK  114  A    between atoms: _274  and  _277
REMARK  115  A    between atoms: _277  and  _278
REMARK  116  A    between atoms: _278  and  _279
REMARK  117  A    between atoms: _279  and  _280
REMARK  118  A    between atoms: _289  and  _291
REMARK  119  A    between atoms: _291  and  _292
REMARK  120  A    between atoms: _291  and  _294
REMARK  121  A    between atoms: _294  and  _295
REMARK  122  A    between atoms: _298  and  _300
REMARK  123  A    between atoms: _300  and  _301
REMARK  124  A    between atoms: _300  and  _303
REMARK  125  A    between atoms: _303  and  _304
REMARK  126  A    between atoms: _307  and  _309
REMARK  127  A    between atoms: _309  and  _310
REMARK  128  A    between atoms: _309  and  _312
REMARK  129  A    between atoms: _312  and  _313
REMARK  130  A    between atoms: _316  and  _318
REMARK  131  A    between atoms: _318  and  _319
REMARK  132  A    between atoms: _318  and  _321
REMARK  133  A    between atoms: _321  and  _322
REMARK  134  A    between atoms: _325  and  _327
REMARK  135  A    between atoms: _327  and  _328
REMARK  136  A    between atoms: _330  and  _332
REMARK  137  A    between atoms: _332  and  _333
REMARK  138  A    between atoms: _336  and  _338
REMARK  139  A    between atoms: _338  and  _339
REMARK  140  A    between atoms: _338  and  _341
REMARK  141  A    between atoms: _341  and  _342
REMARK  142  A    between atoms: _345  and  _347
REMARK  143  A    between atoms: _347  and  _348
REMARK  144  A    between atoms: _347  and  _350
REMARK  145  A    between atoms: _350  and  _351
REMARK  146  A    between atoms: _354  and  _356
REMARK  147  A    between atoms: _356  and  _357
REMARK  148  A    between atoms: _356  and  _359
REMARK  149  A    between atoms: _359  and  _360
REMARK  150  A    between atoms: _363  and  _365
REMARK  151  A    between atoms: _365  and  _366
REMARK  152  A    between atoms: _365  and  _368
REMARK  153  A    between atoms: _371  and  _373
REMARK  154  A    between atoms: _373  and  _374
REMARK  155  A    between atoms: _373  and  _376
REMARK  156  A    between atoms: _376  and  _377
REMARK  157  A    between atoms: _380  and  _382
REMARK  158  A    between atoms: _382  and  _383
REMARK  159  A    between atoms: _382  and  _385
REMARK  160  A    between atoms: _385  and  _386
REMARK  161  A    between atoms: _386  and  _387
REMARK  162  A    between atoms: _387  and  _388
REMARK  163  A    between atoms: _388  and  _389
REMARK  164  A    between atoms: _393  and  _395
REMARK  165  A    between atoms: _395  and  _396
REMARK  166  A    between atoms: _395  and  _398
REMARK  167  A    between atoms: _398  and  _399
REMARK  168  A    between atoms: _399  and  _400
REMARK  169  A    between atoms: _402  and  _404
REMARK  170  A    between atoms: _404  and  _405
REMARK  171  A    between atoms: _404  and  _407
REMARK  172  A    between atoms: _407  and  _408
REMARK  173  A    between atoms: _411  and  _413
REMARK  174  A    between atoms: _413  and  _414
REMARK  175  A    between atoms: _416  and  _418
REMARK  176  A    between atoms: _418  and  _419
REMARK  177  A    between atoms: _421  and  _423
REMARK  178  A    between atoms: _423  and  _424
REMARK  179  A    between atoms: _423  and  _426
REMARK  180  A    between atoms: _426  and  _427
REMARK  181  A    between atoms: _430  and  _432
REMARK  182  A    between atoms: _432  and  _433
REMARK  183  A    between atoms: _435  and  _437
REMARK  184  A    between atoms: _437  and  _438
REMARK  185  A    between atoms: _440  and  _442
REMARK  186  A    between atoms: _442  and  _443
REMARK  187  A    between atoms: _442  and  _445
REMARK  188  A    between atoms: _445  and  _446
REMARK  189  A    between atoms: _452  and  _454
REMARK  190  A    between atoms: _454  and  _455
REMARK  191  A    between atoms: _454  and  _457
REMARK  192  A    between atoms: _457  and  _458
REMARK  193  A    between atoms: _461  and  _463
REMARK  194  A    between atoms: _463  and  _464
REMARK  195  A    between atoms: _463  and  _466
REMARK  196  A    between atoms: _469  and  _471
REMARK  197  A    between atoms: _471  and  _472
REMARK  198  A    between atoms: _471  and  _474
REMARK  199  A    between atoms: _474  and  _475
REMARK  200  A    between atoms: _479  and  _480
REMARK  201  A    between atoms: _485  and  _487
REMARK  202  A    between atoms: _487  and  _488
REMARK  203  A    between atoms: _487  and  _490
REMARK  204  A    between atoms: _490  and  _491
REMARK  205  A    between atoms: _495  and  _496
REMARK  206  A    between atoms: _501  and  _503
REMARK  207  A    between atoms: _503  and  _504
REMARK  208  A    between atoms: _503  and  _506
REMARK  209  A    between atoms: _509  and  _511
REMARK  210  A    between atoms: _511  and  _512
REMARK  211  A    between atoms: _511  and  _514
REMARK  212  A    between atoms: _514  and  _515
REMARK  213  A    between atoms: _520  and  _522
REMARK  214  A    between atoms: _522  and  _523
REMARK  215  A    between atoms: _522  and  _525
REMARK  216  A    between atoms: _525  and  _526
REMARK  217  A    between atoms: _529  and  _531
REMARK  218  A    between atoms: _531  and  _532
REMARK  219  A    between atoms: _531  and  _534
REMARK  220  A    between atoms: _534  and  _535
REMARK  221  A    between atoms: _538  and  _540
REMARK  222  A    between atoms: _540  and  _541
REMARK  223  A    between atoms: _543  and  _545
REMARK  224  A    between atoms: _545  and  _546
REMARK  225  A    between atoms: _545  and  _548
REMARK  226  A    between atoms: _548  and  _549
REMARK  227  A    between atoms: _549  and  _550
REMARK  228  A    between atoms: _550  and  _551
REMARK  229  A    between atoms: _560  and  _562
REMARK  230  A    between atoms: _562  and  _563
REMARK  231  A    between atoms: _562  and  _565
REMARK  232  A    between atoms: _565  and  _566
REMARK                            x       y       z     vdW  Elec       q    Type
REMARK                         _______ _______ _______ _____ _____    ______ ____
ROOT
ATOM      1  O   HOH     1      20.442   6.935  15.578  0.00  0.00    +0.000 OA
ENDROOT
TORSDOF 0
REMARK  Name = ../refined-set-2016/1kzk/1kzk_pocket.pdb
REMARK  232 active torsions:
REMARK  status: ('A' for Active; 'I' for Inactive)
REMARK    1  A    between atoms: _1  and  _3
REMARK    2  A    between atoms: _3  and  _4
REMARK    3  A    between atoms: _3  and  _6
REMARK    4  A    between atoms: _6  and  _7
REMARK    5  A    between atoms: _7  and  _8
REMARK    6  A    between atoms: _8  and  _9
REMARK    7  A    between atoms: _18  and  _20
REMARK    8  A    between atoms: _20  and  _21
REMARK    9  A    between atoms: _20  and  _23
REMARK   10  A    between atoms: _23  and  _24
REMARK   11  A    between atoms: _27  and  _29
REMARK   12  A    between atoms: _29  and  _30
REMARK   13  A    between atoms: _29  and  _32
REMARK   14  A    between atoms: _32  and  _33
REMARK   15  A    between atoms: _36  and  _38
REMARK   16  A    between atoms: _38  and  _39
REMARK   17  A    between atoms: _38  and  _41
REMARK   18  A    between atoms: _41  and  _42
REMARK   19  A    between atoms: _45  and  _47
REMARK   20  A    between atoms: _47  and  _48
REMARK   21  A    between atoms: _47  and  _50
REMARK   22  A    between atoms: _50  and  _51
REMARK   23  A    between atoms: _54  and  _56
REMARK   24  A    between atoms: _56  and  _57
REMARK   25  A    between atoms: _59  and  _61
REMARK   26  A    between atoms: _61  and  _62
REMARK   27  A    between atoms: _65  and  _67
REMARK   28  A    between atoms: _67  and  _68
REMARK   29  A    between atoms: _67  and  _70
REMARK   30  A    between atoms: _70  and  _71
REMARK   31  A    between atoms: _74  and  _76
REMARK   32  A    between atoms: _76  and  _77
REMARK   33  A    between atoms: _76  and  _79
REMARK   34  A    between atoms: _79  and  _80
REMARK   35  A    between atoms: _83  and  _85
REMARK   36  A    between atoms: _85  and  _86
REMARK   37  A    between atoms: _85  and  _88
REMARK   38  A    between atoms: _88  and  _89
REMARK   39  A    between atoms: _92  and  _94
REMARK   40  A    between atoms: _94  and  _95
REMARK   41  A    between atoms: _94  and  _97
REMARK   42  A    between atoms: _100  and  _102
REMARK   43  A    between atoms: _102  and  _103
REMARK   44  A    between atoms: _102  and  _105
REMARK   45  A    between atoms: _106  and  _107
REMARK   46  A    between atoms: _107  and  _108
REMARK   47  A    between atoms: _108  and  _109
REMARK   48  A    between atoms: _113  and  _115
REMARK   49  A    between atoms: _115  and  _116
REMARK   50  A    between atoms: _115  and  _118
REMARK   51  A    between atoms: _118  and  _119
REMARK   52  A    between atoms: _119  and  _120
REMARK   53  A    between atoms: _122  and  _124
REMARK   54  A    between atoms: _124  and  _125
REMARK   55  A    between atoms: _124  and  _127
REMARK   56  A    between atoms: _127  and  _128
REMARK   57  A    between atoms: _131  and  _133
REMARK   58  A    between atoms: _133  and  _134
REMARK   59  A    between atoms: _136  and  _138
REMARK   60  A    between atoms: _138  and  _139
REMARK   61  A    between atoms: _141  and  _143
REMARK   62  A    between atoms: _143  and  _144
REMARK   63  A    between atoms: _143  and  _146
REMARK   64  A    between atoms: _146  and  _147
REMARK   65  A    between atoms: _150  and  _152
REMARK   66  A    between atoms: _152  and  _153
REMARK   67  A    between atoms: _155  and  _157
REMARK   68  A    between atoms: _157  and  _158
REMARK   69  A    between atoms: _160  and  _162
REMARK   70  A    between atoms: _162  and  _163
REMARK   71  A    between atoms: _162  and  _165
REMARK   72  A    between atoms: _165  and  _166
REMARK   73  A    between atoms: _169  and  _171
REMARK   74  A    between atoms: _171  and  _172
REMARK   75  A    between atoms: _171  and  _174
REMARK   76  A    between atoms: _177  and  _179
REMARK   77  A    between atoms: _179  and  _180
REMARK   78  A    between atoms: _179  and  _182
REMARK   79  A    between atoms: _182  and  _183
REMARK   80  A    between atoms: _186  and  _188
REMARK   81  A    between atoms: _188  and  _189
REMARK   82  A    between atoms: _188  and  _191
REMARK   83  A    between atoms: _191  and  _192
REMARK   84  A    between atoms: _196  and  _197
REMARK   85  A    between atoms: _202  and  _204
REMARK   86  A    between atoms: _204  and  _205
REMARK   87  A    between atoms: _204  and  _207
REMARK   88  A    between atoms: _210  and  _212
REMARK   89  A    between atoms: _212  and  _213
REMARK   90  A    between atoms: _212  and  _215
REMARK   91  A    between atoms: _215  and  _216
REMARK   92  A    between atoms: _221  and  _223
REMARK   93  A    between atoms: _223  and  _224
REMARK   94  A    between atoms: _223  and  _226
REMARK   95  A    between atoms: _226  and  _227
REMARK   96  A    between atoms: _230  and  _232
REMARK   97  A    between atoms: _232  and  _233
REMARK   98  A    between atoms: _232  and  _235
REMARK   99  A    between atoms: _235  and  _236
REMARK  100  A    between atoms: _239  and  _241
REMARK  101  A    between atoms: _241  and  _242
REMARK  102  A    between atoms: _244  and  _246
REMARK  103  A    between atoms: _246  and  _247
REMARK  104  A    between atoms: _246  and  _249
REMARK  105  A    between atoms: _249  and  _250
REMARK  106  A    between atoms: _250  and  _251
REMARK  107  A    between atoms: _251  and  _252
REMARK  108  A    between atoms: _261  and  _263
REMARK  109  A    between atoms: _263  and  _264
REMARK  110  A    between atoms: _263  and  _266
REMARK  111  A    between atoms: _266  and  _267
REMARK  112  A    between atoms: _272  and  _274
REMARK  113  A    between atoms: _274  and  _275
REMARK  114  A    between atoms: _274  and  _277
REMARK  115  A    between atoms: _277  and  _278
REMARK  116  A    between atoms: _278  and  _279
REMARK  117  A    between atoms: _279  and  _280
REMARK  118  A    between atoms: _289  and  _291
REMARK  119  A    between atoms: _291  and  _292
REMARK  120  A    between atoms: _291  and  _294
REMARK  121  A    between atoms: _294  and  _295
REMARK  122  A    between atoms: _298  and  _300
REMARK  123  A    between atoms: _300  and  _301
REMARK  124  A    between atoms: _300  and  _303
REMARK  125  A    between atoms: _303  and  _304
REMARK  126  A    between atoms: _307  and  _309
REMARK  127  A    between atoms: _309  and  _310
REMARK  128  A    between atoms: _309  and  _312
REMARK  129  A    between atoms: _312  and  _313
REMARK  130  A    between atoms: _316  and  _318
REMARK  131  A    between atoms: _318  and  _319
REMARK  132  A    between atoms: _318  and  _321
REMARK  133  A    between atoms: _321  and  _322
REMARK  134  A    between atoms: _325  and  _327
REMARK  135  A    between atoms: _327  and  _328
REMARK  136  A    between atoms: _330  and  _332
REMARK  137  A    between atoms: _332  and  _333
REMARK  138  A    between atoms: _336  and  _338
REMARK  139  A    between atoms: _338  and  _339
REMARK  140  A    between atoms: _338  and  _341
REMARK  141  A    between atoms: _341  and  _342
REMARK  142  A    between atoms: _345  and  _347
REMARK  143  A    between atoms: _347  and  _348
REMARK  144  A    between atoms: _347  and  _350
REMARK  145  A    between atoms: _350  and  _351
REMARK  146  A    between atoms: _354  and  _356
REMARK  147  A    between atoms: _356  and  _357
REMARK  148  A    between atoms: _356  and  _359
REMARK  149  A    between atoms: _359  and  _360
REMARK  150  A    between atoms: _363  and  _365
REMARK  151  A    between atoms: _365  and  _366
REMARK  152  A    between atoms: _365  and  _368
REMARK  153  A    between atoms: _371  and  _373
REMARK  154  A    between atoms: _373  and  _374
REMARK  155  A    between atoms: _373  and  _376
REMARK  156  A    between atoms: _376  and  _377
REMARK  157  A    between atoms: _380  and  _382
REMARK  158  A    between atoms: _382  and  _383
REMARK  159  A    between atoms: _382  and  _385
REMARK  160  A    between atoms: _385  and  _386
REMARK  161  A    between atoms: _386  and  _387
REMARK  162  A    between atoms: _387  and  _388
REMARK  163  A    between atoms: _388  and  _389
REMARK  164  A    between atoms: _393  and  _395
REMARK  165  A    between atoms: _395  and  _396
REMARK  166  A    between atoms: _395  and  _398
REMARK  167  A    between atoms: _398  and  _399
REMARK  168  A    between atoms: _399  and  _400
REMARK  169  A    between atoms: _402  and  _404
REMARK  170  A    between atoms: _404  and  _405
REMARK  171  A    between atoms: _404  and  _407
REMARK  172  A    between atoms: _407  and  _408
REMARK  173  A    between atoms: _411  and  _413
REMARK  174  A    between atoms: _413  and  _414
REMARK  175  A    between atoms: _416  and  _418
REMARK  176  A    between atoms: _418  and  _419
REMARK  177  A    between atoms: _421  and  _423
REMARK  178  A    between atoms: _423  and  _424
REMARK  179  A    between atoms: _423  and  _426
REMARK  180  A    between atoms: _426  and  _427
REMARK  181  A    between atoms: _430  and  _432
REMARK  182  A    between atoms: _432  and  _433
REMARK  183  A    between atoms: _435  and  _437
REMARK  184  A    between atoms: _437  and  _438
REMARK  185  A    between atoms: _440  and  _442
REMARK  186  A    between atoms: _442  and  _443
REMARK  187  A    between atoms: _442  and  _445
REMARK  188  A    between atoms: _445  and  _446
REMARK  189  A    between atoms: _452  and  _454
REMARK  190  A    between atoms: _454  and  _455
REMARK  191  A    between atoms: _454  and  _457
REMARK  192  A    between atoms: _457  and  _458
REMARK  193  A    between atoms: _461  and  _463
REMARK  194  A    between atoms: _463  and  _464
REMARK  195  A    between atoms: _463  and  _466
REMARK  196  A    between atoms: _469  and  _471
REMARK  197  A    between atoms: _471  and  _472
REMARK  198  A    between atoms: _471  and  _474
REMARK  199  A    between atoms: _474  and  _475
REMARK  200  A    between atoms: _479  and  _480
REMARK  201  A    between atoms: _485  and  _487
REMARK  202  A    between atoms: _487  and  _488
REMARK  203  A    between atoms: _487  and  _490
REMARK  204  A    between atoms: _490  and  _491
REMARK  205  A    between atoms: _495  and  _496
REMARK  206  A    between atoms: _501  and  _503
REMARK  207  A    between atoms: _503  and  _504
REMARK  208  A    between atoms: _503  and  _506
REMARK  209  A    between atoms: _509  and  _511
REMARK  210  A    between atoms: _511  and  _512
REMARK  211  A    between atoms: _511  and  _514
REMARK  212  A    between atoms: _514  and  _515
REMARK  213  A    between atoms: _520  and  _522
REMARK  214  A    between atoms: _522  and  _523
REMARK  215  A    between atoms: _522  and  _525
REMARK  216  A    between atoms: _525  and  _526
REMARK  217  A    between atoms: _529  and  _531
REMARK  218  A    between atoms: _531  and  _532
REMARK  219  A    between atoms: _531  and  _534
REMARK  220  A    between atoms: _534  and  _535
REMARK  221  A    between atoms: _538  and  _540
REMARK  222  A    between atoms: _540  and  _541
REMARK  223  A    between atoms: _543  and  _545
REMARK  224  A    between atoms: _545  and  _546
REMARK  225  A    between atoms: _545  and  _548
REMARK  226  A    between atoms: _548  and  _549
REMARK  227  A    between atoms: _549  and  _550
REMARK  228  A    between atoms: _550  and  _551
REMARK  229  A    between atoms: _560  and  _562
REMARK  230  A    between atoms: _562  and  _563
REMARK  231  A    between atoms: _562  and  _565
REMARK  232  A    between atoms: _565  and  _566
REMARK                            x       y       z     vdW  Elec       q    Type
REMARK                         _______ _______ _______ _____ _____    ______ ____
ROOT
ATOM      1  O   HOH     1      19.783   5.583  17.975  0.00  0.00    +0.000 OA
ENDROOT
TORSDOF 0
REMARK  Name = ../refined-set-2016/1kzk/1kzk_pocket.pdb
REMARK  232 active torsions:
REMARK  status: ('A' for Active; 'I' for Inactive)
REMARK    1  A    between atoms: _1  and  _3
REMARK    2  A    between atoms: _3  and  _4
REMARK    3  A    between atoms: _3  and  _6
REMARK    4  A    between atoms: _6  and  _7
REMARK    5  A    between atoms: _7  and  _8
REMARK    6  A    between atoms: _8  and  _9
REMARK    7  A    between atoms: _18  and  _20
REMARK    8  A    between atoms: _20  and  _21
REMARK    9  A    between atoms: _20  and  _23
REMARK   10  A    between atoms: _23  and  _24
REMARK   11  A    between atoms: _27  and  _29
REMARK   12  A    between atoms: _29  and  _30
REMARK   13  A    between atoms: _29  and  _32
REMARK   14  A    between atoms: _32  and  _33
REMARK   15  A    between atoms: _36  and  _38
REMARK   16  A    between atoms: _38  and  _39
REMARK   17  A    between atoms: _38  and  _41
REMARK   18  A    between atoms: _41  and  _42
REMARK   19  A    between atoms: _45  and  _47
REMARK   20  A    between atoms: _47  and  _48
REMARK   21  A    between atoms: _47  and  _50
REMARK   22  A    between atoms: _50  and  _51
REMARK   23  A    between atoms: _54  and  _56
REMARK   24  A    between atoms: _56  and  _57
REMARK   25  A    between atoms: _59  and  _61
REMARK   26  A    between atoms: _61  and  _62
REMARK   27  A    between atoms: _65  and  _67
REMARK   28  A    between atoms: _67  and  _68
REMARK   29  A    between atoms: _67  and  _70
REMARK   30  A    between atoms: _70  and  _71
REMARK   31  A    between atoms: _74  and  _76
REMARK   32  A    between atoms: _76  and  _77
REMARK   33  A    between atoms: _76  and  _79
REMARK   34  A    between atoms: _79  and  _80
REMARK   35  A    between atoms: _83  and  _85
REMARK   36  A    between atoms: _85  and  _86
REMARK   37  A    between atoms: _85  and  _88
REMARK   38  A    between atoms: _88  and  _89
REMARK   39  A    between atoms: _92  and  _94
REMARK   40  A    between atoms: _94  and  _95
REMARK   41  A    between atoms: _94  and  _97
REMARK   42  A    between atoms: _100  and  _102
REMARK   43  A    between atoms: _102  and  _103
REMARK   44  A    between atoms: _102  and  _105
REMARK   45  A    between atoms: _106  and  _107
REMARK   46  A    between atoms: _107  and  _108
REMARK   47  A    between atoms: _108  and  _109
REMARK   48  A    between atoms: _113  and  _115
REMARK   49  A    between atoms: _115  and  _116
REMARK   50  A    between atoms: _115  and  _118
REMARK   51  A    between atoms: _118  and  _119
REMARK   52  A    between atoms: _119  and  _120
REMARK   53  A    between atoms: _122  and  _124
REMARK   54  A    between atoms: _124  and  _125
REMARK   55  A    between atoms: _124  and  _127
REMARK   56  A    between atoms: _127  and  _128
REMARK   57  A    between atoms: _131  and  _133
REMARK   58  A    between atoms: _133  and  _134
REMARK   59  A    between atoms: _136  and  _138
REMARK   60  A    between atoms: _138  and  _139
REMARK   61  A    between atoms: _141  and  _143
REMARK   62  A    between atoms: _143  and  _144
REMARK   63  A    between atoms: _143  and  _146
REMARK   64  A    between atoms: _146  and  _147
REMARK   65  A    between atoms: _150  and  _152
REMARK   66  A    between atoms: _152  and  _153
REMARK   67  A    between atoms: _155  and  _157
REMARK   68  A    between atoms: _157  and  _158
REMARK   69  A    between atoms: _160  and  _162
REMARK   70  A    between atoms: _162  and  _163
REMARK   71  A    between atoms: _162  and  _165
REMARK   72  A    between atoms: _165  and  _166
REMARK   73  A    between atoms: _169  and  _171
REMARK   74  A    between atoms: _171  and  _172
REMARK   75  A    between atoms: _171  and  _174
REMARK   76  A    between atoms: _177  and  _179
REMARK   77  A    between atoms: _179  and  _180
REMARK   78  A    between atoms: _179  and  _182
REMARK   79  A    between atoms: _182  and  _183
REMARK   80  A    between atoms: _186  and  _188
REMARK   81  A    between atoms: _188  and  _189
REMARK   82  A    between atoms: _188  and  _191
REMARK   83  A    between atoms: _191  and  _192
REMARK   84  A    between atoms: _196  and  _197
REMARK   85  A    between atoms: _202  and  _204
REMARK   86  A    between atoms: _204  and  _205
REMARK   87  A    between atoms: _204  and  _207
REMARK   88  A    between atoms: _210  and  _212
REMARK   89  A    between atoms: _212  and  _213
REMARK   90  A    between atoms: _212  and  _215
REMARK   91  A    between atoms: _215  and  _216
REMARK   92  A    between atoms: _221  and  _223
REMARK   93  A    between atoms: _223  and  _224
REMARK   94  A    between atoms: _223  and  _226
REMARK   95  A    between atoms: _226  and  _227
REMARK   96  A    between atoms: _230  and  _232
REMARK   97  A    between atoms: _232  and  _233
REMARK   98  A    between atoms: _232  and  _235
REMARK   99  A    between atoms: _235  and  _236
REMARK  100  A    between atoms: _239  and  _241
REMARK  101  A    between atoms: _241  and  _242
REMARK  102  A    between atoms: _244  and  _246
REMARK  103  A    between atoms: _246  and  _247
REMARK  104  A    between atoms: _246  and  _249
REMARK  105  A    between atoms: _249  and  _250
REMARK  106  A    between atoms: _250  and  _251
REMARK  107  A    between atoms: _251  and  _252
REMARK  108  A    between atoms: _261  and  _263
REMARK  109  A    between atoms: _263  and  _264
REMARK  110  A    between atoms: _263  and  _266
REMARK  111  A    between atoms: _266  and  _267
REMARK  112  A    between atoms: _272  and  _274
REMARK  113  A    between atoms: _274  and  _275
REMARK  114  A    between atoms: _274  and  _277
REMARK  115  A    between atoms: _277  and  _278
REMARK  116  A    between atoms: _278  and  _279
REMARK  117  A    between atoms: _279  and  _280
REMARK  118  A    between atoms: _289  and  _291
REMARK  119  A    between atoms: _291  and  _292
REMARK  120  A    between atoms: _291  and  _294
REMARK  121  A    between atoms: _294  and  _295
REMARK  122  A    between atoms: _298  and  _300
REMARK  123  A    between atoms: _300  and  _301
REMARK  124  A    between atoms: _300  and  _303
REMARK  125  A    between atoms: _303  and  _304
REMARK  126  A    between atoms: _307  and  _309
REMARK  127  A    between atoms: _309  and  _310
REMARK  128  A    between atoms: _309  and  _312
REMARK  129  A    between atoms: _312  and  _313
REMARK  130  A    between atoms: _316  and  _318
REMARK  131  A    between atoms: _318  and  _319
REMARK  132  A    between atoms: _318  and  _321
REMARK  133  A    between atoms: _321  and  _322
REMARK  134  A    between atoms: _325  and  _327
REMARK  135  A    between atoms: _327  and  _328
REMARK  136  A    between atoms: _330  and  _332
REMARK  137  A    between atoms: _332  and  _333
REMARK  138  A    between atoms: _336  and  _338
REMARK  139  A    between atoms: _338  and  _339
REMARK  140  A    between atoms: _338  and  _341
REMARK  141  A    between atoms: _341  and  _342
REMARK  142  A    between atoms: _345  and  _347
REMARK  143  A    between atoms: _347  and  _348
REMARK  144  A    between atoms: _347  and  _350
REMARK  145  A    between atoms: _350  and  _351
REMARK  146  A    between atoms: _354  and  _356
REMARK  147  A    between atoms: _356  and  _357
REMARK  148  A    between atoms: _356  and  _359
REMARK  149  A    between atoms: _359  and  _360
REMARK  150  A    between atoms: _363  and  _365
REMARK  151  A    between atoms: _365  and  _366
REMARK  152  A    between atoms: _365  and  _368
REMARK  153  A    between atoms: _371  and  _373
REMARK  154  A    between atoms: _373  and  _374
REMARK  155  A    between atoms: _373  and  _376
REMARK  156  A    between atoms: _376  and  _377
REMARK  157  A    between atoms: _380  and  _382
REMARK  158  A    between atoms: _382  and  _383
REMARK  159  A    between atoms: _382  and  _385
REMARK  160  A    between atoms: _385  and  _386
REMARK  161  A    between atoms: _386  and  _387
REMARK  162  A    between atoms: _387  and  _388
REMARK  163  A    between atoms: _388  and  _389
REMARK  164  A    between atoms: _393  and  _395
REMARK  165  A    between atoms: _395  and  _396
REMARK  166  A    between atoms: _395  and  _398
REMARK  167  A    between atoms: _398  and  _399
REMARK  168  A    between atoms: _399  and  _400
REMARK  169  A    between atoms: _402  and  _404
REMARK  170  A    between atoms: _404  and  _405
REMARK  171  A    between atoms: _404  and  _407
REMARK  172  A    between atoms: _407  and  _408
REMARK  173  A    between atoms: _411  and  _413
REMARK  174  A    between atoms: _413  and  _414
REMARK  175  A    between atoms: _416  and  _418
REMARK  176  A    between atoms: _418  and  _419
REMARK  177  A    between atoms: _421  and  _423
REMARK  178  A    between atoms: _423  and  _424
REMARK  179  A    between atoms: _423  and  _426
REMARK  180  A    between atoms: _426  and  _427
REMARK  181  A    between atoms: _430  and  _432
REMARK  182  A    between atoms: _432  and  _433
REMARK  183  A    between atoms: _435  and  _437
REMARK  184  A    between atoms: _437  and  _438
REMARK  185  A    between atoms: _440  and  _442
REMARK  186  A    between atoms: _442  and  _443
REMARK  187  A    between atoms: _442  and  _445
REMARK  188  A    between atoms: _445  and  _446
REMARK  189  A    between atoms: _452  and  _454
REMARK  190  A    between atoms: _454  and  _455
REMARK  191  A    between atoms: _454  and  _457
REMARK  192  A    between atoms: _457  and  _458
REMARK  193  A    between atoms: _461  and  _463
REMARK  194  A    between atoms: _463  and  _464
REMARK  195  A    between atoms: _463  and  _466
REMARK  196  A    between atoms: _469  and  _471
REMARK  197  A    between atoms: _471  and  _472
REMARK  198  A    between atoms: _471  and  _474
REMARK  199  A    between atoms: _474  and  _475
REMARK  200  A    between atoms: _479  and  _480
REMARK  201  A    between atoms: _485  and  _487
REMARK  202  A    between atoms: _487  and  _488
REMARK  203  A    between atoms: _487  and  _490
REMARK  204  A    between atoms: _490  and  _491
REMARK  205  A    between atoms: _495  and  _496
REMARK  206  A    between atoms: _501  and  _503
REMARK  207  A    between atoms: _503  and  _504
REMARK  208  A    between atoms: _503  and  _506
REMARK  209  A    between atoms: _509  and  _511
REMARK  210  A    between atoms: _511  and  _512
REMARK  211  A    between atoms: _511  and  _514
REMARK  212  A    between atoms: _514  and  _515
REMARK  213  A    between atoms: _520  and  _522
REMARK  214  A    between atoms: _522  and  _523
REMARK  215  A    between atoms: _522  and  _525
REMARK  216  A    between atoms: _525  and  _526
REMARK  217  A    between atoms: _529  and  _531
REMARK  218  A    between atoms: _531  and  _532
REMARK  219  A    between atoms: _531  and  _534
REMARK  220  A    between atoms: _534  and  _535
REMARK  221  A    between atoms: _538  and  _540
REMARK  222  A    between atoms: _540  and  _541
REMARK  223  A    between atoms: _543  and  _545
REMARK  224  A    between atoms: _545  and  _546
REMARK  225  A    between atoms: _545  and  _548
REMARK  226  A    between atoms: _548  and  _549
REMARK  227  A    between atoms: _549  and  _550
REMARK  228  A    between atoms: _550  and  _551
REMARK  229  A    between atoms: _560  and  _562
REMARK  230  A    between atoms: _562  and  _563
REMARK  231  A    between atoms: _562  and  _565
REMARK  232  A    between atoms: _565  and  _566
REMARK                            x       y       z     vdW  Elec       q    Type
REMARK                         _______ _______ _______ _____ _____    ______ ____
ROOT
ATOM      1  O   HOH     1      18.687  -6.486  11.893  0.00  0.00    +0.000 OA
ENDROOT
TORSDOF 0
REMARK  Name = ../refined-set-2016/1kzk/1kzk_pocket.pdb
REMARK  232 active torsions:
REMARK  status: ('A' for Active; 'I' for Inactive)
REMARK    1  A    between atoms: _1  and  _3
REMARK    2  A    between atoms: _3  and  _4
REMARK    3  A    between atoms: _3  and  _6
REMARK    4  A    between atoms: _6  and  _7
REMARK    5  A    between atoms: _7  and  _8
REMARK    6  A    between atoms: _8  and  _9
REMARK    7  A    between atoms: _18  and  _20
REMARK    8  A    between atoms: _20  and  _21
REMARK    9  A    between atoms: _20  and  _23
REMARK   10  A    between atoms: _23  and  _24
REMARK   11  A    between atoms: _27  and  _29
REMARK   12  A    between atoms: _29  and  _30
REMARK   13  A    between atoms: _29  and  _32
REMARK   14  A    between atoms: _32  and  _33
REMARK   15  A    between atoms: _36  and  _38
REMARK   16  A    between atoms: _38  and  _39
REMARK   17  A    between atoms: _38  and  _41
REMARK   18  A    between atoms: _41  and  _42
REMARK   19  A    between atoms: _45  and  _47
REMARK   20  A    between atoms: _47  and  _48
REMARK   21  A    between atoms: _47  and  _50
REMARK   22  A    between atoms: _50  and  _51
REMARK   23  A    between atoms: _54  and  _56
REMARK   24  A    between atoms: _56  and  _57
REMARK   25  A    between atoms: _59  and  _61
REMARK   26  A    between atoms: _61  and  _62
REMARK   27  A    between atoms: _65  and  _67
REMARK   28  A    between atoms: _67  and  _68
REMARK   29  A    between atoms: _67  and  _70
REMARK   30  A    between atoms: _70  and  _71
REMARK   31  A    between atoms: _74  and  _76
REMARK   32  A    between atoms: _76  and  _77
REMARK   33  A    between atoms: _76  and  _79
REMARK   34  A    between atoms: _79  and  _80
REMARK   35  A    between atoms: _83  and  _85
REMARK   36  A    between atoms: _85  and  _86
REMARK   37  A    between atoms: _85  and  _88
REMARK   38  A    between atoms: _88  and  _89
REMARK   39  A    between atoms: _92  and  _94
REMARK   40  A    between atoms: _94  and  _95
REMARK   41  A    between atoms: _94  and  _97
REMARK   42  A    between atoms: _100  and  _102
REMARK   43  A    between atoms: _102  and  _103
REMARK   44  A    between atoms: _102  and  _105
REMARK   45  A    between atoms: _106  and  _107
REMARK   46  A    between atoms: _107  and  _108
REMARK   47  A    between atoms: _108  and  _109
REMARK   48  A    between atoms: _113  and  _115
REMARK   49  A    between atoms: _115  and  _116
REMARK   50  A    between atoms: _115  and  _118
REMARK   51  A    between atoms: _118  and  _119
REMARK   52  A    between atoms: _119  and  _120
REMARK   53  A    between atoms: _122  and  _124
REMARK   54  A    between atoms: _124  and  _125
REMARK   55  A    between atoms: _124  and  _127
REMARK   56  A    between atoms: _127  and  _128
REMARK   57  A    between atoms: _131  and  _133
REMARK   58  A    between atoms: _133  and  _134
REMARK   59  A    between atoms: _136  and  _138
REMARK   60  A    between atoms: _138  and  _139
REMARK   61  A    between atoms: _141  and  _143
REMARK   62  A    between atoms: _143  and  _144
REMARK   63  A    between atoms: _143  and  _146
REMARK   64  A    between atoms: _146  and  _147
REMARK   65  A    between atoms: _150  and  _152
REMARK   66  A    between atoms: _152  and  _153
REMARK   67  A    between atoms: _155  and  _157
REMARK   68  A    between atoms: _157  and  _158
REMARK   69  A    between atoms: _160  and  _162
REMARK   70  A    between atoms: _162  and  _163
REMARK   71  A    between atoms: _162  and  _165
REMARK   72  A    between atoms: _165  and  _166
REMARK   73  A    between atoms: _169  and  _171
REMARK   74  A    between atoms: _171  and  _172
REMARK   75  A    between atoms: _171  and  _174
REMARK   76  A    between atoms: _177  and  _179
REMARK   77  A    between atoms: _179  and  _180
REMARK   78  A    between atoms: _179  and  _182
REMARK   79  A    between atoms: _182  and  _183
REMARK   80  A    between atoms: _186  and  _188
REMARK   81  A    between atoms: _188  and  _189
REMARK   82  A    between atoms: _188  and  _191
REMARK   83  A    between atoms: _191  and  _192
REMARK   84  A    between atoms: _196  and  _197
REMARK   85  A    between atoms: _202  and  _204
REMARK   86  A    between atoms: _204  and  _205
REMARK   87  A    between atoms: _204  and  _207
REMARK   88  A    between atoms: _210  and  _212
REMARK   89  A    between atoms: _212  and  _213
REMARK   90  A    between atoms: _212  and  _215
REMARK   91  A    between atoms: _215  and  _216
REMARK   92  A    between atoms: _221  and  _223
REMARK   93  A    between atoms: _223  and  _224
REMARK   94  A    between atoms: _223  and  _226
REMARK   95  A    between atoms: _226  and  _227
REMARK   96  A    between atoms: _230  and  _232
REMARK   97  A    between atoms: _232  and  _233
REMARK   98  A    between atoms: _232  and  _235
REMARK   99  A    between atoms: _235  and  _236
REMARK  100  A    between atoms: _239  and  _241
REMARK  101  A    between atoms: _241  and  _242
REMARK  102  A    between atoms: _244  and  _246
REMARK  103  A    between atoms: _246  and  _247
REMARK  104  A    between atoms: _246  and  _249
REMARK  105  A    between atoms: _249  and  _250
REMARK  106  A    between atoms: _250  and  _251
REMARK  107  A    between atoms: _251  and  _252
REMARK  108  A    between atoms: _261  and  _263
REMARK  109  A    between atoms: _263  and  _264
REMARK  110  A    between atoms: _263  and  _266
REMARK  111  A    between atoms: _266  and  _267
REMARK  112  A    between atoms: _272  and  _274
REMARK  113  A    between atoms: _274  and  _275
REMARK  114  A    between atoms: _274  and  _277
REMARK  115  A    between atoms: _277  and  _278
REMARK  116  A    between atoms: _278  and  _279
REMARK  117  A    between atoms: _279  and  _280
REMARK  118  A    between atoms: _289  and  _291
REMARK  119  A    between atoms: _291  and  _292
REMARK  120  A    between atoms: _291  and  _294
REMARK  121  A    between atoms: _294  and  _295
REMARK  122  A    between atoms: _298  and  _300
REMARK  123  A    between atoms: _300  and  _301
REMARK  124  A    between atoms: _300  and  _303
REMARK  125  A    between atoms: _303  and  _304
REMARK  126  A    between atoms: _307  and  _309
REMARK  127  A    between atoms: _309  and  _310
REMARK  128  A    between atoms: _309  and  _312
REMARK  129  A    between atoms: _312  and  _313
REMARK  130  A    between atoms: _316  and  _318
REMARK  131  A    between atoms: _318  and  _319
REMARK  132  A    between atoms: _318  and  _321
REMARK  133  A    between atoms: _321  and  _322
REMARK  134  A    between atoms: _325  and  _327
REMARK  135  A    between atoms: _327  and  _328
REMARK  136  A    between atoms: _330  and  _332
REMARK  137  A    between atoms: _332  and  _333
REMARK  138  A    between atoms: _336  and  _338
REMARK  139  A    between atoms: _338  and  _339
REMARK  140  A    between atoms: _338  and  _341
REMARK  141  A    between atoms: _341  and  _342
REMARK  142  A    between atoms: _345  and  _347
REMARK  143  A    between atoms: _347  and  _348
REMARK  144  A    between atoms: _347  and  _350
REMARK  145  A    between atoms: _350  and  _351
REMARK  146  A    between atoms: _354  and  _356
REMARK  147  A    between atoms: _356  and  _357
REMARK  148  A    between atoms: _356  and  _359
REMARK  149  A    between atoms: _359  and  _360
REMARK  150  A    between atoms: _363  and  _365
REMARK  151  A    between atoms: _365  and  _366
REMARK  152  A    between atoms: _365  and  _368
REMARK  153  A    between atoms: _371  and  _373
REMARK  154  A    between atoms: _373  and  _374
REMARK  155  A    between atoms: _373  and  _376
REMARK  156  A    between atoms: _376  and  _377
REMARK  157  A    between atoms: _380  and  _382
REMARK  158  A    between atoms: _382  and  _383
REMARK  159  A    between atoms: _382  and  _385
REMARK  160  A    between atoms: _385  and  _386
REMARK  161  A    between atoms: _386  and  _387
REMARK  162  A    between atoms: _387  and  _388
REMARK  163  A    between atoms: _388  and  _389
REMARK  164  A    between atoms: _393  and  _395
REMARK  165  A    between atoms: _395  and  _396
REMARK  166  A    between atoms: _395  and  _398
REMARK  167  A    between atoms: _398  and  _399
REMARK  168  A    between atoms: _399  and  _400
REMARK  169  A    between atoms: _402  and  _404
REMARK  170  A    between atoms: _404  and  _405
REMARK  171  A    between atoms: _404  and  _407
REMARK  172  A    between atoms: _407  and  _408
REMARK  173  A    between atoms: _411  and  _413
REMARK  174  A    between atoms: _413  and  _414
REMARK  175  A    between atoms: _416  and  _418
REMARK  176  A    between atoms: _418  and  _419
REMARK  177  A    between atoms: _421  and  _423
REMARK  178  A    between atoms: _423  and  _424
REMARK  179  A    between atoms: _423  and  _426
REMARK  180  A    between atoms: _426  and  _427
REMARK  181  A    between atoms: _430  and  _432
REMARK  182  A    between atoms: _432  and  _433
REMARK  183  A    between atoms: _435  and  _437
REMARK  184  A    between atoms: _437  and  _438
REMARK  185  A    between atoms: _440  and  _442
REMARK  186  A    between atoms: _442  and  _443
REMARK  187  A    between atoms: _442  and  _445
REMARK  188  A    between atoms: _445  and  _446
REMARK  189  A    between atoms: _452  and  _454
REMARK  190  A    between atoms: _454  and  _455
REMARK  191  A    between atoms: _454  and  _457
REMARK  192  A    between atoms: _457  and  _458
REMARK  193  A    between atoms: _461  and  _463
REMARK  194  A    between atoms: _463  and  _464
REMARK  195  A    between atoms: _463  and  _466
REMARK  196  A    between atoms: _469  and  _471
REMARK  197  A    between atoms: _471  and  _472
REMARK  198  A    between atoms: _471  and  _474
REMARK  199  A    between atoms: _474  and  _475
REMARK  200  A    between atoms: _479  and  _480
REMARK  201  A    between atoms: _485  and  _487
REMARK  202  A    between atoms: _487  and  _488
REMARK  203  A    between atoms: _487  and  _490
REMARK  204  A    between atoms: _490  and  _491
REMARK  205  A    between atoms: _495  and  _496
REMARK  206  A    between atoms: _501  and  _503
REMARK  207  A    between atoms: _503  and  _504
REMARK  208  A    between atoms: _503  and  _506
REMARK  209  A    between atoms: _509  and  _511
REMARK  210  A    between atoms: _511  and  _512
REMARK  211  A    between atoms: _511  and  _514
REMARK  212  A    between atoms: _514  and  _515
REMARK  213  A    between atoms: _520  and  _522
REMARK  214  A    between atoms: _522  and  _523
REMARK  215  A    between atoms: _522  and  _525
REMARK  216  A    between atoms: _525  and  _526
REMARK  217  A    between atoms: _529  and  _531
REMARK  218  A    between atoms: _531  and  _532
REMARK  219  A    between atoms: _531  and  _534
REMARK  220  A    between atoms: _534  and  _535
REMARK  221  A    between atoms: _538  and  _540
REMARK  222  A    between atoms: _540  and  _541
REMARK  223  A    between atoms: _543  and  _545
REMARK  224  A    between atoms: _545  and  _546
REMARK  225  A    between atoms: _545  and  _548
REMARK  226  A    between atoms: _548  and  _549
REMARK  227  A    between atoms: _549  and  _550
REMARK  228  A    between atoms: _550  and  _551
REMARK  229  A    between atoms: _560  and  _562
REMARK  230  A    between atoms: _562  and  _563
REMARK  231  A    between atoms: _562  and  _565
REMARK  232  A    between atoms: _565  and  _566
REMARK                            x       y       z     vdW  Elec       q    Type
REMARK                         _______ _______ _______ _____ _____    ______ ____
ROOT
ATOM      1  O   HOH     1      13.832 -10.025  10.970  0.00  0.00    +0.000 OA
ENDROOT
TORSDOF 0
REMARK  Name = ../refined-set-2016/1kzk/1kzk_pocket.pdb
REMARK  232 active torsions:
REMARK  status: ('A' for Active; 'I' for Inactive)
REMARK    1  A    between atoms: _1  and  _3
REMARK    2  A    between atoms: _3  and  _4
REMARK    3  A    between atoms: _3  and  _6
REMARK    4  A    between atoms: _6  and  _7
REMARK    5  A    between atoms: _7  and  _8
REMARK    6  A    between atoms: _8  and  _9
REMARK    7  A    between atoms: _18  and  _20
REMARK    8  A    between atoms: _20  and  _21
REMARK    9  A    between atoms: _20  and  _23
REMARK   10  A    between atoms: _23  and  _24
REMARK   11  A    between atoms: _27  and  _29
REMARK   12  A    between atoms: _29  and  _30
REMARK   13  A    between atoms: _29  and  _32
REMARK   14  A    between atoms: _32  and  _33
REMARK   15  A    between atoms: _36  and  _38
REMARK   16  A    between atoms: _38  and  _39
REMARK   17  A    between atoms: _38  and  _41
REMARK   18  A    between atoms: _41  and  _42
REMARK   19  A    between atoms: _45  and  _47
REMARK   20  A    between atoms: _47  and  _48
REMARK   21  A    between atoms: _47  and  _50
REMARK   22  A    between atoms: _50  and  _51
REMARK   23  A    between atoms: _54  and  _56
REMARK   24  A    between atoms: _56  and  _57
REMARK   25  A    between atoms: _59  and  _61
REMARK   26  A    between atoms: _61  and  _62
REMARK   27  A    between atoms: _65  and  _67
REMARK   28  A    between atoms: _67  and  _68
REMARK   29  A    between atoms: _67  and  _70
REMARK   30  A    between atoms: _70  and  _71
REMARK   31  A    between atoms: _74  and  _76
REMARK   32  A    between atoms: _76  and  _77
REMARK   33  A    between atoms: _76  and  _79
REMARK   34  A    between atoms: _79  and  _80
REMARK   35  A    between atoms: _83  and  _85
REMARK   36  A    between atoms: _85  and  _86
REMARK   37  A    between atoms: _85  and  _88
REMARK   38  A    between atoms: _88  and  _89
REMARK   39  A    between atoms: _92  and  _94
REMARK   40  A    between atoms: _94  and  _95
REMARK   41  A    between atoms: _94  and  _97
REMARK   42  A    between atoms: _100  and  _102
REMARK   43  A    between atoms: _102  and  _103
REMARK   44  A    between atoms: _102  and  _105
REMARK   45  A    between atoms: _106  and  _107
REMARK   46  A    between atoms: _107  and  _108
REMARK   47  A    between atoms: _108  and  _109
REMARK   48  A    between atoms: _113  and  _115
REMARK   49  A    between atoms: _115  and  _116
REMARK   50  A    between atoms: _115  and  _118
REMARK   51  A    between atoms: _118  and  _119
REMARK   52  A    between atoms: _119  and  _120
REMARK   53  A    between atoms: _122  and  _124
REMARK   54  A    between atoms: _124  and  _125
REMARK   55  A    between atoms: _124  and  _127
REMARK   56  A    between atoms: _127  and  _128
REMARK   57  A    between atoms: _131  and  _133
REMARK   58  A    between atoms: _133  and  _134
REMARK   59  A    between atoms: _136  and  _138
REMARK   60  A    between atoms: _138  and  _139
REMARK   61  A    between atoms: _141  and  _143
REMARK   62  A    between atoms: _143  and  _144
REMARK   63  A    between atoms: _143  and  _146
REMARK   64  A    between atoms: _146  and  _147
REMARK   65  A    between atoms: _150  and  _152
REMARK   66  A    between atoms: _152  and  _153
REMARK   67  A    between atoms: _155  and  _157
REMARK   68  A    between atoms: _157  and  _158
REMARK   69  A    between atoms: _160  and  _162
REMARK   70  A    between atoms: _162  and  _163
REMARK   71  A    between atoms: _162  and  _165
REMARK   72  A    between atoms: _165  and  _166
REMARK   73  A    between atoms: _169  and  _171
REMARK   74  A    between atoms: _171  and  _172
REMARK   75  A    between atoms: _171  and  _174
REMARK   76  A    between atoms: _177  and  _179
REMARK   77  A    between atoms: _179  and  _180
REMARK   78  A    between atoms: _179  and  _182
REMARK   79  A    between atoms: _182  and  _183
REMARK   80  A    between atoms: _186  and  _188
REMARK   81  A    between atoms: _188  and  _189
REMARK   82  A    between atoms: _188  and  _191
REMARK   83  A    between atoms: _191  and  _192
REMARK   84  A    between atoms: _196  and  _197
REMARK   85  A    between atoms: _202  and  _204
REMARK   86  A    between atoms: _204  and  _205
REMARK   87  A    between atoms: _204  and  _207
REMARK   88  A    between atoms: _210  and  _212
REMARK   89  A    between atoms: _212  and  _213
REMARK   90  A    between atoms: _212  and  _215
REMARK   91  A    between atoms: _215  and  _216
REMARK   92  A    between atoms: _221  and  _223
REMARK   93  A    between atoms: _223  and  _224
REMARK   94  A    between atoms: _223  and  _226
REMARK   95  A    between atoms: _226  and  _227
REMARK   96  A    between atoms: _230  and  _232
REMARK   97  A    between atoms: _232  and  _233
REMARK   98  A    between atoms: _232  and  _235
REMARK   99  A    between atoms: _235  and  _236
REMARK  100  A    between atoms: _239  and  _241
REMARK  101  A    between atoms: _241  and  _242
REMARK  102  A    between atoms: _244  and  _246
REMARK  103  A    between atoms: _246  and  _247
REMARK  104  A    between atoms: _246  and  _249
REMARK  105  A    between atoms: _249  and  _250
REMARK  106  A    between atoms: _250  and  _251
REMARK  107  A    between atoms: _251  and  _252
REMARK  108  A    between atoms: _261  and  _263
REMARK  109  A    between atoms: _263  and  _264
REMARK  110  A    between atoms: _263  and  _266
REMARK  111  A    between atoms: _266  and  _267
REMARK  112  A    between atoms: _272  and  _274
REMARK  113  A    between atoms: _274  and  _275
REMARK  114  A    between atoms: _274  and  _277
REMARK  115  A    between atoms: _277  and  _278
REMARK  116  A    between atoms: _278  and  _279
REMARK  117  A    between atoms: _279  and  _280
REMARK  118  A    between atoms: _289  and  _291
REMARK  119  A    between atoms: _291  and  _292
REMARK  120  A    between atoms: _291  and  _294
REMARK  121  A    between atoms: _294  and  _295
REMARK  122  A    between atoms: _298  and  _300
REMARK  123  A    between atoms: _300  and  _301
REMARK  124  A    between atoms: _300  and  _303
REMARK  125  A    between atoms: _303  and  _304
REMARK  126  A    between atoms: _307  and  _309
REMARK  127  A    between atoms: _309  and  _310
REMARK  128  A    between atoms: _309  and  _312
REMARK  129  A    between atoms: _312  and  _313
REMARK  130  A    between atoms: _316  and  _318
REMARK  131  A    between atoms: _318  and  _319
REMARK  132  A    between atoms: _318  and  _321
REMARK  133  A    between atoms: _321  and  _322
REMARK  134  A    between atoms: _325  and  _327
REMARK  135  A    between atoms: _327  and  _328
REMARK  136  A    between atoms: _330  and  _332
REMARK  137  A    between atoms: _332  and  _333
REMARK  138  A    between atoms: _336  and  _338
REMARK  139  A    between atoms: _338  and  _339
REMARK  140  A    between atoms: _338  and  _341
REMARK  141  A    between atoms: _341  and  _342
REMARK  142  A    between atoms: _345  and  _347
REMARK  143  A    between atoms: _347  and  _348
REMARK  144  A    between atoms: _347  and  _350
REMARK  145  A    between atoms: _350  and  _351
REMARK  146  A    between atoms: _354  and  _356
REMARK  147  A    between atoms: _356  and  _357
REMARK  148  A    between atoms: _356  and  _359
REMARK  149  A    between atoms: _359  and  _360
REMARK  150  A    between atoms: _363  and  _365
REMARK  151  A    between atoms: _365  and  _366
REMARK  152  A    between atoms: _365  and  _368
REMARK  153  A    between atoms: _371  and  _373
REMARK  154  A    between atoms: _373  and  _374
REMARK  155  A    between atoms: _373  and  _376
REMARK  156  A    between atoms: _376  and  _377
REMARK  157  A    between atoms: _380  and  _382
REMARK  158  A    between atoms: _382  and  _383
REMARK  159  A    between atoms: _382  and  _385
REMARK  160  A    between atoms: _385  and  _386
REMARK  161  A    between atoms: _386  and  _387
REMARK  162  A    between atoms: _387  and  _388
REMARK  163  A    between atoms: _388  and  _389
REMARK  164  A    between atoms: _393  and  _395
REMARK  165  A    between atoms: _395  and  _396
REMARK  166  A    between atoms: _395  and  _398
REMARK  167  A    between atoms: _398  and  _399
REMARK  168  A    between atoms: _399  and  _400
REMARK  169  A    between atoms: _402  and  _404
REMARK  170  A    between atoms: _404  and  _405
REMARK  171  A    between atoms: _404  and  _407
REMARK  172  A    between atoms: _407  and  _408
REMARK  173  A    between atoms: _411  and  _413
REMARK  174  A    between atoms: _413  and  _414
REMARK  175  A    between atoms: _416  and  _418
REMARK  176  A    between atoms: _418  and  _419
REMARK  177  A    between atoms: _421  and  _423
REMARK  178  A    between atoms: _423  and  _424
REMARK  179  A    between atoms: _423  and  _426
REMARK  180  A    between atoms: _426  and  _427
REMARK  181  A    between atoms: _430  and  _432
REMARK  182  A    between atoms: _432  and  _433
REMARK  183  A    between atoms: _435  and  _437
REMARK  184  A    between atoms: _437  and  _438
REMARK  185  A    between atoms: _440  and  _442
REMARK  186  A    between atoms: _442  and  _443
REMARK  187  A    between atoms: _442  and  _445
REMARK  188  A    between atoms: _445  and  _446
REMARK  189  A    between atoms: _452  and  _454
REMARK  190  A    between atoms: _454  and  _455
REMARK  191  A    between atoms: _454  and  _457
REMARK  192  A    between atoms: _457  and  _458
REMARK  193  A    between atoms: _461  and  _463
REMARK  194  A    between atoms: _463  and  _464
REMARK  195  A    between atoms: _463  and  _466
REMARK  196  A    between atoms: _469  and  _471
REMARK  197  A    between atoms: _471  and  _472
REMARK  198  A    between atoms: _471  and  _474
REMARK  199  A    between atoms: _474  and  _475
REMARK  200  A    between atoms: _479  and  _480
REMARK  201  A    between atoms: _485  and  _487
REMARK  202  A    between atoms: _487  and  _488
REMARK  203  A    between atoms: _487  and  _490
REMARK  204  A    between atoms: _490  and  _491
REMARK  205  A    between atoms: _495  and  _496
REMARK  206  A    between atoms: _501  and  _503
REMARK  207  A    between atoms: _503  and  _504
REMARK  208  A    between atoms: _503  and  _506
REMARK  209  A    between atoms: _509  and  _511
REMARK  210  A    between atoms: _511  and  _512
REMARK  211  A    between atoms: _511  and  _514
REMARK  212  A    between atoms: _514  and  _515
REMARK  213  A    between atoms: _520  and  _522
REMARK  214  A    between atoms: _522  and  _523
REMARK  215  A    between atoms: _522  and  _525
REMARK  216  A    between atoms: _525  and  _526
REMARK  217  A    between atoms: _529  and  _531
REMARK  218  A    between atoms: _531  and  _532
REMARK  219  A    between atoms: _531  and  _534
REMARK  220  A    between atoms: _534  and  _535
REMARK  221  A    between atoms: _538  and  _540
REMARK  222  A    between atoms: _540  and  _541
REMARK  223  A    between atoms: _543  and  _545
REMARK  224  A    between atoms: _545  and  _546
REMARK  225  A    between atoms: _545  and  _548
REMARK  226  A    between atoms: _548  and  _549
REMARK  227  A    between atoms: _549  and  _550
REMARK  228  A    between atoms: _550  and  _551
REMARK  229  A    between atoms: _560  and  _562
REMARK  230  A    between atoms: _562  and  _563
REMARK  231  A    between atoms: _562  and  _565
REMARK  232  A    between atoms: _565  and  _566
REMARK                            x       y       z     vdW  Elec       q    Type
REMARK                         _______ _______ _______ _____ _____    ______ ____
ROOT
ATOM      1  O   HOH     1      16.406 -10.341  11.106  0.00  0.00    +0.000 OA
ENDROOT
TORSDOF 0
REMARK  Name = ../refined-set-2016/1kzk/1kzk_pocket.pdb
REMARK  232 active torsions:
REMARK  status: ('A' for Active; 'I' for Inactive)
REMARK    1  A    between atoms: _1  and  _3
REMARK    2  A    between atoms: _3  and  _4
REMARK    3  A    between atoms: _3  and  _6
REMARK    4  A    between atoms: _6  and  _7
REMARK    5  A    between atoms: _7  and  _8
REMARK    6  A    between atoms: _8  and  _9
REMARK    7  A    between atoms: _18  and  _20
REMARK    8  A    between atoms: _20  and  _21
REMARK    9  A    between atoms: _20  and  _23
REMARK   10  A    between atoms: _23  and  _24
REMARK   11  A    between atoms: _27  and  _29
REMARK   12  A    between atoms: _29  and  _30
REMARK   13  A    between atoms: _29  and  _32
REMARK   14  A    between atoms: _32  and  _33
REMARK   15  A    between atoms: _36  and  _38
REMARK   16  A    between atoms: _38  and  _39
REMARK   17  A    between atoms: _38  and  _41
REMARK   18  A    between atoms: _41  and  _42
REMARK   19  A    between atoms: _45  and  _47
REMARK   20  A    between atoms: _47  and  _48
REMARK   21  A    between atoms: _47  and  _50
REMARK   22  A    between atoms: _50  and  _51
REMARK   23  A    between atoms: _54  and  _56
REMARK   24  A    between atoms: _56  and  _57
REMARK   25  A    between atoms: _59  and  _61
REMARK   26  A    between atoms: _61  and  _62
REMARK   27  A    between atoms: _65  and  _67
REMARK   28  A    between atoms: _67  and  _68
REMARK   29  A    between atoms: _67  and  _70
REMARK   30  A    between atoms: _70  and  _71
REMARK   31  A    between atoms: _74  and  _76
REMARK   32  A    between atoms: _76  and  _77
REMARK   33  A    between atoms: _76  and  _79
REMARK   34  A    between atoms: _79  and  _80
REMARK   35  A    between atoms: _83  and  _85
REMARK   36  A    between atoms: _85  and  _86
REMARK   37  A    between atoms: _85  and  _88
REMARK   38  A    between atoms: _88  and  _89
REMARK   39  A    between atoms: _92  and  _94
REMARK   40  A    between atoms: _94  and  _95
REMARK   41  A    between atoms: _94  and  _97
REMARK   42  A    between atoms: _100  and  _102
REMARK   43  A    between atoms: _102  and  _103
REMARK   44  A    between atoms: _102  and  _105
REMARK   45  A    between atoms: _106  and  _107
REMARK   46  A    between atoms: _107  and  _108
REMARK   47  A    between atoms: _108  and  _109
REMARK   48  A    between atoms: _113  and  _115
REMARK   49  A    between atoms: _115  and  _116
REMARK   50  A    between atoms: _115  and  _118
REMARK   51  A    between atoms: _118  and  _119
REMARK   52  A    between atoms: _119  and  _120
REMARK   53  A    between atoms: _122  and  _124
REMARK   54  A    between atoms: _124  and  _125
REMARK   55  A    between atoms: _124  and  _127
REMARK   56  A    between atoms: _127  and  _128
REMARK   57  A    between atoms: _131  and  _133
REMARK   58  A    between atoms: _133  and  _134
REMARK   59  A    between atoms: _136  and  _138
REMARK   60  A    between atoms: _138  and  _139
REMARK   61  A    between atoms: _141  and  _143
REMARK   62  A    between atoms: _143  and  _144
REMARK   63  A    between atoms: _143  and  _146
REMARK   64  A    between atoms: _146  and  _147
REMARK   65  A    between atoms: _150  and  _152
REMARK   66  A    between atoms: _152  and  _153
REMARK   67  A    between atoms: _155  and  _157
REMARK   68  A    between atoms: _157  and  _158
REMARK   69  A    between atoms: _160  and  _162
REMARK   70  A    between atoms: _162  and  _163
REMARK   71  A    between atoms: _162  and  _165
REMARK   72  A    between atoms: _165  and  _166
REMARK   73  A    between atoms: _169  and  _171
REMARK   74  A    between atoms: _171  and  _172
REMARK   75  A    between atoms: _171  and  _174
REMARK   76  A    between atoms: _177  and  _179
REMARK   77  A    between atoms: _179  and  _180
REMARK   78  A    between atoms: _179  and  _182
REMARK   79  A    between atoms: _182  and  _183
REMARK   80  A    between atoms: _186  and  _188
REMARK   81  A    between atoms: _188  and  _189
REMARK   82  A    between atoms: _188  and  _191
REMARK   83  A    between atoms: _191  and  _192
REMARK   84  A    between atoms: _196  and  _197
REMARK   85  A    between atoms: _202  and  _204
REMARK   86  A    between atoms: _204  and  _205
REMARK   87  A    between atoms: _204  and  _207
REMARK   88  A    between atoms: _210  and  _212
REMARK   89  A    between atoms: _212  and  _213
REMARK   90  A    between atoms: _212  and  _215
REMARK   91  A    between atoms: _215  and  _216
REMARK   92  A    between atoms: _221  and  _223
REMARK   93  A    between atoms: _223  and  _224
REMARK   94  A    between atoms: _223  and  _226
REMARK   95  A    between atoms: _226  and  _227
REMARK   96  A    between atoms: _230  and  _232
REMARK   97  A    between atoms: _232  and  _233
REMARK   98  A    between atoms: _232  and  _235
REMARK   99  A    between atoms: _235  and  _236
REMARK  100  A    between atoms: _239  and  _241
REMARK  101  A    between atoms: _241  and  _242
REMARK  102  A    between atoms: _244  and  _246
REMARK  103  A    between atoms: _246  and  _247
REMARK  104  A    between atoms: _246  and  _249
REMARK  105  A    between atoms: _249  and  _250
REMARK  106  A    between atoms: _250  and  _251
REMARK  107  A    between atoms: _251  and  _252
REMARK  108  A    between atoms: _261  and  _263
REMARK  109  A    between atoms: _263  and  _264
REMARK  110  A    between atoms: _263  and  _266
REMARK  111  A    between atoms: _266  and  _267
REMARK  112  A    between atoms: _272  and  _274
REMARK  113  A    between atoms: _274  and  _275
REMARK  114  A    between atoms: _274  and  _277
REMARK  115  A    between atoms: _277  and  _278
REMARK  116  A    between atoms: _278  and  _279
REMARK  117  A    between atoms: _279  and  _280
REMARK  118  A    between atoms: _289  and  _291
REMARK  119  A    between atoms: _291  and  _292
REMARK  120  A    between atoms: _291  and  _294
REMARK  121  A    between atoms: _294  and  _295
REMARK  122  A    between atoms: _298  and  _300
REMARK  123  A    between atoms: _300  and  _301
REMARK  124  A    between atoms: _300  and  _303
REMARK  125  A    between atoms: _303  and  _304
REMARK  126  A    between atoms: _307  and  _309
REMARK  127  A    between atoms: _309  and  _310
REMARK  128  A    between atoms: _309  and  _312
REMARK  129  A    between atoms: _312  and  _313
REMARK  130  A    between atoms: _316  and  _318
REMARK  131  A    between atoms: _318  and  _319
REMARK  132  A    between atoms: _318  and  _321
REMARK  133  A    between atoms: _321  and  _322
REMARK  134  A    between atoms: _325  and  _327
REMARK  135  A    between atoms: _327  and  _328
REMARK  136  A    between atoms: _330  and  _332
REMARK  137  A    between atoms: _332  and  _333
REMARK  138  A    between atoms: _336  and  _338
REMARK  139  A    between atoms: _338  and  _339
REMARK  140  A    between atoms: _338  and  _341
REMARK  141  A    between atoms: _341  and  _342
REMARK  142  A    between atoms: _345  and  _347
REMARK  143  A    between atoms: _347  and  _348
REMARK  144  A    between atoms: _347  and  _350
REMARK  145  A    between atoms: _350  and  _351
REMARK  146  A    between atoms: _354  and  _356
REMARK  147  A    between atoms: _356  and  _357
REMARK  148  A    between atoms: _356  and  _359
REMARK  149  A    between atoms: _359  and  _360
REMARK  150  A    between atoms: _363  and  _365
REMARK  151  A    between atoms: _365  and  _366
REMARK  152  A    between atoms: _365  and  _368
REMARK  153  A    between atoms: _371  and  _373
REMARK  154  A    between atoms: _373  and  _374
REMARK  155  A    between atoms: _373  and  _376
REMARK  156  A    between atoms: _376  and  _377
REMARK  157  A    between atoms: _380  and  _382
REMARK  158  A    between atoms: _382  and  _383
REMARK  159  A    between atoms: _382  and  _385
REMARK  160  A    between atoms: _385  and  _386
REMARK  161  A    between atoms: _386  and  _387
REMARK  162  A    between atoms: _387  and  _388
REMARK  163  A    between atoms: _388  and  _389
REMARK  164  A    between atoms: _393  and  _395
REMARK  165  A    between atoms: _395  and  _396
REMARK  166  A    between atoms: _395  and  _398
REMARK  167  A    between atoms: _398  and  _399
REMARK  168  A    between atoms: _399  and  _400
REMARK  169  A    between atoms: _402  and  _404
REMARK  170  A    between atoms: _404  and  _405
REMARK  171  A    between atoms: _404  and  _407
REMARK  172  A    between atoms: _407  and  _408
REMARK  173  A    between atoms: _411  and  _413
REMARK  174  A    between atoms: _413  and  _414
REMARK  175  A    between atoms: _416  and  _418
REMARK  176  A    between atoms: _418  and  _419
REMARK  177  A    between atoms: _421  and  _423
REMARK  178  A    between atoms: _423  and  _424
REMARK  179  A    between atoms: _423  and  _426
REMARK  180  A    between atoms: _426  and  _427
REMARK  181  A    between atoms: _430  and  _432
REMARK  182  A    between atoms: _432  and  _433
REMARK  183  A    between atoms: _435  and  _437
REMARK  184  A    between atoms: _437  and  _438
REMARK  185  A    between atoms: _440  and  _442
REMARK  186  A    between atoms: _442  and  _443
REMARK  187  A    between atoms: _442  and  _445
REMARK  188  A    between atoms: _445  and  _446
REMARK  189  A    between atoms: _452  and  _454
REMARK  190  A    between atoms: _454  and  _455
REMARK  191  A    between atoms: _454  and  _457
REMARK  192  A    between atoms: _457  and  _458
REMARK  193  A    between atoms: _461  and  _463
REMARK  194  A    between atoms: _463  and  _464
REMARK  195  A    between atoms: _463  and  _466
REMARK  196  A    between atoms: _469  and  _471
REMARK  197  A    between atoms: _471  and  _472
REMARK  198  A    between atoms: _471  and  _474
REMARK  199  A    between atoms: _474  and  _475
REMARK  200  A    between atoms: _479  and  _480
REMARK  201  A    between atoms: _485  and  _487
REMARK  202  A    between atoms: _487  and  _488
REMARK  203  A    between atoms: _487  and  _490
REMARK  204  A    between atoms: _490  and  _491
REMARK  205  A    between atoms: _495  and  _496
REMARK  206  A    between atoms: _501  and  _503
REMARK  207  A    between atoms: _503  and  _504
REMARK  208  A    between atoms: _503  and  _506
REMARK  209  A    between atoms: _509  and  _511
REMARK  210  A    between atoms: _511  and  _512
REMARK  211  A    between atoms: _511  and  _514
REMARK  212  A    between atoms: _514  and  _515
REMARK  213  A    between atoms: _520  and  _522
REMARK  214  A    between atoms: _522  and  _523
REMARK  215  A    between atoms: _522  and  _525
REMARK  216  A    between atoms: _525  and  _526
REMARK  217  A    between atoms: _529  and  _531
REMARK  218  A    between atoms: _531  and  _532
REMARK  219  A    between atoms: _531  and  _534
REMARK  220  A    between atoms: _534  and  _535
REMARK  221  A    between atoms: _538  and  _540
REMARK  222  A    between atoms: _540  and  _541
REMARK  223  A    between atoms: _543  and  _545
REMARK  224  A    between atoms: _545  and  _546
REMARK  225  A    between atoms: _545  and  _548
REMARK  226  A    between atoms: _548  and  _549
REMARK  227  A    between atoms: _549  and  _550
REMARK  228  A    between atoms: _550  and  _551
REMARK  229  A    between atoms: _560  and  _562
REMARK  230  A    between atoms: _562  and  _563
REMARK  231  A    between atoms: _562  and  _565
REMARK  232  A    between atoms: _565  and  _566
REMARK                            x       y       z     vdW  Elec       q    Type
REMARK                         _______ _______ _______ _____ _____    ______ ____
ROOT
ATOM      1  O   HOH     1      17.048 -11.009  14.419  0.00  0.00    +0.000 OA
ENDROOT
TORSDOF 0
REMARK  Name = ../refined-set-2016/1kzk/1kzk_pocket.pdb
REMARK  232 active torsions:
REMARK  status: ('A' for Active; 'I' for Inactive)
REMARK    1  A    between atoms: _1  and  _3
REMARK    2  A    between atoms: _3  and  _4
REMARK    3  A    between atoms: _3  and  _6
REMARK    4  A    between atoms: _6  and  _7
REMARK    5  A    between atoms: _7  and  _8
REMARK    6  A    between atoms: _8  and  _9
REMARK    7  A    between atoms: _18  and  _20
REMARK    8  A    between atoms: _20  and  _21
REMARK    9  A    between atoms: _20  and  _23
REMARK   10  A    between atoms: _23  and  _24
REMARK   11  A    between atoms: _27  and  _29
REMARK   12  A    between atoms: _29  and  _30
REMARK   13  A    between atoms: _29  and  _32
REMARK   14  A    between atoms: _32  and  _33
REMARK   15  A    between atoms: _36  and  _38
REMARK   16  A    between atoms: _38  and  _39
REMARK   17  A    between atoms: _38  and  _41
REMARK   18  A    between atoms: _41  and  _42
REMARK   19  A    between atoms: _45  and  _47
REMARK   20  A    between atoms: _47  and  _48
REMARK   21  A    between atoms: _47  and  _50
REMARK   22  A    between atoms: _50  and  _51
REMARK   23  A    between atoms: _54  and  _56
REMARK   24  A    between atoms: _56  and  _57
REMARK   25  A    between atoms: _59  and  _61
REMARK   26  A    between atoms: _61  and  _62
REMARK   27  A    between atoms: _65  and  _67
REMARK   28  A    between atoms: _67  and  _68
REMARK   29  A    between atoms: _67  and  _70
REMARK   30  A    between atoms: _70  and  _71
REMARK   31  A    between atoms: _74  and  _76
REMARK   32  A    between atoms: _76  and  _77
REMARK   33  A    between atoms: _76  and  _79
REMARK   34  A    between atoms: _79  and  _80
REMARK   35  A    between atoms: _83  and  _85
REMARK   36  A    between atoms: _85  and  _86
REMARK   37  A    between atoms: _85  and  _88
REMARK   38  A    between atoms: _88  and  _89
REMARK   39  A    between atoms: _92  and  _94
REMARK   40  A    between atoms: _94  and  _95
REMARK   41  A    between atoms: _94  and  _97
REMARK   42  A    between atoms: _100  and  _102
REMARK   43  A    between atoms: _102  and  _103
REMARK   44  A    between atoms: _102  and  _105
REMARK   45  A    between atoms: _106  and  _107
REMARK   46  A    between atoms: _107  and  _108
REMARK   47  A    between atoms: _108  and  _109
REMARK   48  A    between atoms: _113  and  _115
REMARK   49  A    between atoms: _115  and  _116
REMARK   50  A    between atoms: _115  and  _118
REMARK   51  A    between atoms: _118  and  _119
REMARK   52  A    between atoms: _119  and  _120
REMARK   53  A    between atoms: _122  and  _124
REMARK   54  A    between atoms: _124  and  _125
REMARK   55  A    between atoms: _124  and  _127
REMARK   56  A    between atoms: _127  and  _128
REMARK   57  A    between atoms: _131  and  _133
REMARK   58  A    between atoms: _133  and  _134
REMARK   59  A    between atoms: _136  and  _138
REMARK   60  A    between atoms: _138  and  _139
REMARK   61  A    between atoms: _141  and  _143
REMARK   62  A    between atoms: _143  and  _144
REMARK   63  A    between atoms: _143  and  _146
REMARK   64  A    between atoms: _146  and  _147
REMARK   65  A    between atoms: _150  and  _152
REMARK   66  A    between atoms: _152  and  _153
REMARK   67  A    between atoms: _155  and  _157
REMARK   68  A    between atoms: _157  and  _158
REMARK   69  A    between atoms: _160  and  _162
REMARK   70  A    between atoms: _162  and  _163
REMARK   71  A    between atoms: _162  and  _165
REMARK   72  A    between atoms: _165  and  _166
REMARK   73  A    between atoms: _169  and  _171
REMARK   74  A    between atoms: _171  and  _172
REMARK   75  A    between atoms: _171  and  _174
REMARK   76  A    between atoms: _177  and  _179
REMARK   77  A    between atoms: _179  and  _180
REMARK   78  A    between atoms: _179  and  _182
REMARK   79  A    between atoms: _182  and  _183
REMARK   80  A    between atoms: _186  and  _188
REMARK   81  A    between atoms: _188  and  _189
REMARK   82  A    between atoms: _188  and  _191
REMARK   83  A    between atoms: _191  and  _192
REMARK   84  A    between atoms: _196  and  _197
REMARK   85  A    between atoms: _202  and  _204
REMARK   86  A    between atoms: _204  and  _205
REMARK   87  A    between atoms: _204  and  _207
REMARK   88  A    between atoms: _210  and  _212
REMARK   89  A    between atoms: _212  and  _213
REMARK   90  A    between atoms: _212  and  _215
REMARK   91  A    between atoms: _215  and  _216
REMARK   92  A    between atoms: _221  and  _223
REMARK   93  A    between atoms: _223  and  _224
REMARK   94  A    between atoms: _223  and  _226
REMARK   95  A    between atoms: _226  and  _227
REMARK   96  A    between atoms: _230  and  _232
REMARK   97  A    between atoms: _232  and  _233
REMARK   98  A    between atoms: _232  and  _235
REMARK   99  A    between atoms: _235  and  _236
REMARK  100  A    between atoms: _239  and  _241
REMARK  101  A    between atoms: _241  and  _242
REMARK  102  A    between atoms: _244  and  _246
REMARK  103  A    between atoms: _246  and  _247
REMARK  104  A    between atoms: _246  and  _249
REMARK  105  A    between atoms: _249  and  _250
REMARK  106  A    between atoms: _250  and  _251
REMARK  107  A    between atoms: _251  and  _252
REMARK  108  A    between atoms: _261  and  _263
REMARK  109  A    between atoms: _263  and  _264
REMARK  110  A    between atoms: _263  and  _266
REMARK  111  A    between atoms: _266  and  _267
REMARK  112  A    between atoms: _272  and  _274
REMARK  113  A    between atoms: _274  and  _275
REMARK  114  A    between atoms: _274  and  _277
REMARK  115  A    between atoms: _277  and  _278
REMARK  116  A    between atoms: _278  and  _279
REMARK  117  A    between atoms: _279  and  _280
REMARK  118  A    between atoms: _289  and  _291
REMARK  119  A    between atoms: _291  and  _292
REMARK  120  A    between atoms: _291  and  _294
REMARK  121  A    between atoms: _294  and  _295
REMARK  122  A    between atoms: _298  and  _300
REMARK  123  A    between atoms: _300  and  _301
REMARK  124  A    between atoms: _300  and  _303
REMARK  125  A    between atoms: _303  and  _304
REMARK  126  A    between atoms: _307  and  _309
REMARK  127  A    between atoms: _309  and  _310
REMARK  128  A    between atoms: _309  and  _312
REMARK  129  A    between atoms: _312  and  _313
REMARK  130  A    between atoms: _316  and  _318
REMARK  131  A    between atoms: _318  and  _319
REMARK  132  A    between atoms: _318  and  _321
REMARK  133  A    between atoms: _321  and  _322
REMARK  134  A    between atoms: _325  and  _327
REMARK  135  A    between atoms: _327  and  _328
REMARK  136  A    between atoms: _330  and  _332
REMARK  137  A    between atoms: _332  and  _333
REMARK  138  A    between atoms: _336  and  _338
REMARK  139  A    between atoms: _338  and  _339
REMARK  140  A    between atoms: _338  and  _341
REMARK  141  A    between atoms: _341  and  _342
REMARK  142  A    between atoms: _345  and  _347
REMARK  143  A    between atoms: _347  and  _348
REMARK  144  A    between atoms: _347  and  _350
REMARK  145  A    between atoms: _350  and  _351
REMARK  146  A    between atoms: _354  and  _356
REMARK  147  A    between atoms: _356  and  _357
REMARK  148  A    between atoms: _356  and  _359
REMARK  149  A    between atoms: _359  and  _360
REMARK  150  A    between atoms: _363  and  _365
REMARK  151  A    between atoms: _365  and  _366
REMARK  152  A    between atoms: _365  and  _368
REMARK  153  A    between atoms: _371  and  _373
REMARK  154  A    between atoms: _373  and  _374
REMARK  155  A    between atoms: _373  and  _376
REMARK  156  A    between atoms: _376  and  _377
REMARK  157  A    between atoms: _380  and  _382
REMARK  158  A    between atoms: _382  and  _383
REMARK  159  A    between atoms: _382  and  _385
REMARK  160  A    between atoms: _385  and  _386
REMARK  161  A    between atoms: _386  and  _387
REMARK  162  A    between atoms: _387  and  _388
REMARK  163  A    between atoms: _388  and  _389
REMARK  164  A    between atoms: _393  and  _395
REMARK  165  A    between atoms: _395  and  _396
REMARK  166  A    between atoms: _395  and  _398
REMARK  167  A    between atoms: _398  and  _399
REMARK  168  A    between atoms: _399  and  _400
REMARK  169  A    between atoms: _402  and  _404
REMARK  170  A    between atoms: _404  and  _405
REMARK  171  A    between atoms: _404  and  _407
REMARK  172  A    between atoms: _407  and  _408
REMARK  173  A    between atoms: _411  and  _413
REMARK  174  A    between atoms: _413  and  _414
REMARK  175  A    between atoms: _416  and  _418
REMARK  176  A    between atoms: _418  and  _419
REMARK  177  A    between atoms: _421  and  _423
REMARK  178  A    between atoms: _423  and  _424
REMARK  179  A    between atoms: _423  and  _426
REMARK  180  A    between atoms: _426  and  _427
REMARK  181  A    between atoms: _430  and  _432
REMARK  182  A    between atoms: _432  and  _433
REMARK  183  A    between atoms: _435  and  _437
REMARK  184  A    between atoms: _437  and  _438
REMARK  185  A    between atoms: _440  and  _442
REMARK  186  A    between atoms: _442  and  _443
REMARK  187  A    between atoms: _442  and  _445
REMARK  188  A    between atoms: _445  and  _446
REMARK  189  A    between atoms: _452  and  _454
REMARK  190  A    between atoms: _454  and  _455
REMARK  191  A    between atoms: _454  and  _457
REMARK  192  A    between atoms: _457  and  _458
REMARK  193  A    between atoms: _461  and  _463
REMARK  194  A    between atoms: _463  and  _464
REMARK  195  A    between atoms: _463  and  _466
REMARK  196  A    between atoms: _469  and  _471
REMARK  197  A    between atoms: _471  and  _472
REMARK  198  A    between atoms: _471  and  _474
REMARK  199  A    between atoms: _474  and  _475
REMARK  200  A    between atoms: _479  and  _480
REMARK  201  A    between atoms: _485  and  _487
REMARK  202  A    between atoms: _487  and  _488
REMARK  203  A    between atoms: _487  and  _490
REMARK  204  A    between atoms: _490  and  _491
REMARK  205  A    between atoms: _495  and  _496
REMARK  206  A    between atoms: _501  and  _503
REMARK  207  A    between atoms: _503  and  _504
REMARK  208  A    between atoms: _503  and  _506
REMARK  209  A    between atoms: _509  and  _511
REMARK  210  A    between atoms: _511  and  _512
REMARK  211  A    between atoms: _511  and  _514
REMARK  212  A    between atoms: _514  and  _515
REMARK  213  A    between atoms: _520  and  _522
REMARK  214  A    between atoms: _522  and  _523
REMARK  215  A    between atoms: _522  and  _525
REMARK  216  A    between atoms: _525  and  _526
REMARK  217  A    between atoms: _529  and  _531
REMARK  218  A    between atoms: _531  and  _532
REMARK  219  A    between atoms: _531  and  _534
REMARK  220  A    between atoms: _534  and  _535
REMARK  221  A    between atoms: _538  and  _540
REMARK  222  A    between atoms: _540  and  _541
REMARK  223  A    between atoms: _543  and  _545
REMARK  224  A    between atoms: _545  and  _546
REMARK  225  A    between atoms: _545  and  _548
REMARK  226  A    between atoms: _548  and  _549
REMARK  227  A    between atoms: _549  and  _550
REMARK  228  A    between atoms: _550  and  _551
REMARK  229  A    between atoms: _560  and  _562
REMARK  230  A    between atoms: _562  and  _563
REMARK  231  A    between atoms: _562  and  _565
REMARK  232  A    between atoms: _565  and  _566
REMARK                            x       y       z     vdW  Elec       q    Type
REMARK                         _______ _______ _______ _____ _____    ______ ____
ROOT
ATOM      1  O   HOH     1      18.905  -8.997  13.676  0.00  0.00    +0.000 OA
ENDROOT
TORSDOF 0
REMARK  Name = ../refined-set-2016/1kzk/1kzk_pocket.pdb
REMARK  232 active torsions:
REMARK  status: ('A' for Active; 'I' for Inactive)
REMARK    1  A    between atoms: _1  and  _3
REMARK    2  A    between atoms: _3  and  _4
REMARK    3  A    between atoms: _3  and  _6
REMARK    4  A    between atoms: _6  and  _7
REMARK    5  A    between atoms: _7  and  _8
REMARK    6  A    between atoms: _8  and  _9
REMARK    7  A    between atoms: _18  and  _20
REMARK    8  A    between atoms: _20  and  _21
REMARK    9  A    between atoms: _20  and  _23
REMARK   10  A    between atoms: _23  and  _24
REMARK   11  A    between atoms: _27  and  _29
REMARK   12  A    between atoms: _29  and  _30
REMARK   13  A    between atoms: _29  and  _32
REMARK   14  A    between atoms: _32  and  _33
REMARK   15  A    between atoms: _36  and  _38
REMARK   16  A    between atoms: _38  and  _39
REMARK   17  A    between atoms: _38  and  _41
REMARK   18  A    between atoms: _41  and  _42
REMARK   19  A    between atoms: _45  and  _47
REMARK   20  A    between atoms: _47  and  _48
REMARK   21  A    between atoms: _47  and  _50
REMARK   22  A    between atoms: _50  and  _51
REMARK   23  A    between atoms: _54  and  _56
REMARK   24  A    between atoms: _56  and  _57
REMARK   25  A    between atoms: _59  and  _61
REMARK   26  A    between atoms: _61  and  _62
REMARK   27  A    between atoms: _65  and  _67
REMARK   28  A    between atoms: _67  and  _68
REMARK   29  A    between atoms: _67  and  _70
REMARK   30  A    between atoms: _70  and  _71
REMARK   31  A    between atoms: _74  and  _76
REMARK   32  A    between atoms: _76  and  _77
REMARK   33  A    between atoms: _76  and  _79
REMARK   34  A    between atoms: _79  and  _80
REMARK   35  A    between atoms: _83  and  _85
REMARK   36  A    between atoms: _85  and  _86
REMARK   37  A    between atoms: _85  and  _88
REMARK   38  A    between atoms: _88  and  _89
REMARK   39  A    between atoms: _92  and  _94
REMARK   40  A    between atoms: _94  and  _95
REMARK   41  A    between atoms: _94  and  _97
REMARK   42  A    between atoms: _100  and  _102
REMARK   43  A    between atoms: _102  and  _103
REMARK   44  A    between atoms: _102  and  _105
REMARK   45  A    between atoms: _106  and  _107
REMARK   46  A    between atoms: _107  and  _108
REMARK   47  A    between atoms: _108  and  _109
REMARK   48  A    between atoms: _113  and  _115
REMARK   49  A    between atoms: _115  and  _116
REMARK   50  A    between atoms: _115  and  _118
REMARK   51  A    between atoms: _118  and  _119
REMARK   52  A    between atoms: _119  and  _120
REMARK   53  A    between atoms: _122  and  _124
REMARK   54  A    between atoms: _124  and  _125
REMARK   55  A    between atoms: _124  and  _127
REMARK   56  A    between atoms: _127  and  _128
REMARK   57  A    between atoms: _131  and  _133
REMARK   58  A    between atoms: _133  and  _134
REMARK   59  A    between atoms: _136  and  _138
REMARK   60  A    between atoms: _138  and  _139
REMARK   61  A    between atoms: _141  and  _143
REMARK   62  A    between atoms: _143  and  _144
REMARK   63  A    between atoms: _143  and  _146
REMARK   64  A    between atoms: _146  and  _147
REMARK   65  A    between atoms: _150  and  _152
REMARK   66  A    between atoms: _152  and  _153
REMARK   67  A    between atoms: _155  and  _157
REMARK   68  A    between atoms: _157  and  _158
REMARK   69  A    between atoms: _160  and  _162
REMARK   70  A    between atoms: _162  and  _163
REMARK   71  A    between atoms: _162  and  _165
REMARK   72  A    between atoms: _165  and  _166
REMARK   73  A    between atoms: _169  and  _171
REMARK   74  A    between atoms: _171  and  _172
REMARK   75  A    between atoms: _171  and  _174
REMARK   76  A    between atoms: _177  and  _179
REMARK   77  A    between atoms: _179  and  _180
REMARK   78  A    between atoms: _179  and  _182
REMARK   79  A    between atoms: _182  and  _183
REMARK   80  A    between atoms: _186  and  _188
REMARK   81  A    between atoms: _188  and  _189
REMARK   82  A    between atoms: _188  and  _191
REMARK   83  A    between atoms: _191  and  _192
REMARK   84  A    between atoms: _196  and  _197
REMARK   85  A    between atoms: _202  and  _204
REMARK   86  A    between atoms: _204  and  _205
REMARK   87  A    between atoms: _204  and  _207
REMARK   88  A    between atoms: _210  and  _212
REMARK   89  A    between atoms: _212  and  _213
REMARK   90  A    between atoms: _212  and  _215
REMARK   91  A    between atoms: _215  and  _216
REMARK   92  A    between atoms: _221  and  _223
REMARK   93  A    between atoms: _223  and  _224
REMARK   94  A    between atoms: _223  and  _226
REMARK   95  A    between atoms: _226  and  _227
REMARK   96  A    between atoms: _230  and  _232
REMARK   97  A    between atoms: _232  and  _233
REMARK   98  A    between atoms: _232  and  _235
REMARK   99  A    between atoms: _235  and  _236
REMARK  100  A    between atoms: _239  and  _241
REMARK  101  A    between atoms: _241  and  _242
REMARK  102  A    between atoms: _244  and  _246
REMARK  103  A    between atoms: _246  and  _247
REMARK  104  A    between atoms: _246  and  _249
REMARK  105  A    between atoms: _249  and  _250
REMARK  106  A    between atoms: _250  and  _251
REMARK  107  A    between atoms: _251  and  _252
REMARK  108  A    between atoms: _261  and  _263
REMARK  109  A    between atoms: _263  and  _264
REMARK  110  A    between atoms: _263  and  _266
REMARK  111  A    between atoms: _266  and  _267
REMARK  112  A    between atoms: _272  and  _274
REMARK  113  A    between atoms: _274  and  _275
REMARK  114  A    between atoms: _274  and  _277
REMARK  115  A    between atoms: _277  and  _278
REMARK  116  A    between atoms: _278  and  _279
REMARK  117  A    between atoms: _279  and  _280
REMARK  118  A    between atoms: _289  and  _291
REMARK  119  A    between atoms: _291  and  _292
REMARK  120  A    between atoms: _291  and  _294
REMARK  121  A    between atoms: _294  and  _295
REMARK  122  A    between atoms: _298  and  _300
REMARK  123  A    between atoms: _300  and  _301
REMARK  124  A    between atoms: _300  and  _303
REMARK  125  A    between atoms: _303  and  _304
REMARK  126  A    between atoms: _307  and  _309
REMARK  127  A    between atoms: _309  and  _310
REMARK  128  A    between atoms: _309  and  _312
REMARK  129  A    between atoms: _312  and  _313
REMARK  130  A    between atoms: _316  and  _318
REMARK  131  A    between atoms: _318  and  _319
REMARK  132  A    between atoms: _318  and  _321
REMARK  133  A    between atoms: _321  and  _322
REMARK  134  A    between atoms: _325  and  _327
REMARK  135  A    between atoms: _327  and  _328
REMARK  136  A    between atoms: _330  and  _332
REMARK  137  A    between atoms: _332  and  _333
REMARK  138  A    between atoms: _336  and  _338
REMARK  139  A    between atoms: _338  and  _339
REMARK  140  A    between atoms: _338  and  _341
REMARK  141  A    between atoms: _341  and  _342
REMARK  142  A    between atoms: _345  and  _347
REMARK  143  A    between atoms: _347  and  _348
REMARK  144  A    between atoms: _347  and  _350
REMARK  145  A    between atoms: _350  and  _351
REMARK  146  A    between atoms: _354  and  _356
REMARK  147  A    between atoms: _356  and  _357
REMARK  148  A    between atoms: _356  and  _359
REMARK  149  A    between atoms: _359  and  _360
REMARK  150  A    between atoms: _363  and  _365
REMARK  151  A    between atoms: _365  and  _366
REMARK  152  A    between atoms: _365  and  _368
REMARK  153  A    between atoms: _371  and  _373
REMARK  154  A    between atoms: _373  and  _374
REMARK  155  A    between atoms: _373  and  _376
REMARK  156  A    between atoms: _376  and  _377
REMARK  157  A    between atoms: _380  and  _382
REMARK  158  A    between atoms: _382  and  _383
REMARK  159  A    between atoms: _382  and  _385
REMARK  160  A    between atoms: _385  and  _386
REMARK  161  A    between atoms: _386  and  _387
REMARK  162  A    between atoms: _387  and  _388
REMARK  163  A    between atoms: _388  and  _389
REMARK  164  A    between atoms: _393  and  _395
REMARK  165  A    between atoms: _395  and  _396
REMARK  166  A    between atoms: _395  and  _398
REMARK  167  A    between atoms: _398  and  _399
REMARK  168  A    between atoms: _399  and  _400
REMARK  169  A    between atoms: _402  and  _404
REMARK  170  A    between atoms: _404  and  _405
REMARK  171  A    between atoms: _404  and  _407
REMARK  172  A    between atoms: _407  and  _408
REMARK  173  A    between atoms: _411  and  _413
REMARK  174  A    between atoms: _413  and  _414
REMARK  175  A    between atoms: _416  and  _418
REMARK  176  A    between atoms: _418  and  _419
REMARK  177  A    between atoms: _421  and  _423
REMARK  178  A    between atoms: _423  and  _424
REMARK  179  A    between atoms: _423  and  _426
REMARK  180  A    between atoms: _426  and  _427
REMARK  181  A    between atoms: _430  and  _432
REMARK  182  A    between atoms: _432  and  _433
REMARK  183  A    between atoms: _435  and  _437
REMARK  184  A    between atoms: _437  and  _438
REMARK  185  A    between atoms: _440  and  _442
REMARK  186  A    between atoms: _442  and  _443
REMARK  187  A    between atoms: _442  and  _445
REMARK  188  A    between atoms: _445  and  _446
REMARK  189  A    between atoms: _452  and  _454
REMARK  190  A    between atoms: _454  and  _455
REMARK  191  A    between atoms: _454  and  _457
REMARK  192  A    between atoms: _457  and  _458
REMARK  193  A    between atoms: _461  and  _463
REMARK  194  A    between atoms: _463  and  _464
REMARK  195  A    between atoms: _463  and  _466
REMARK  196  A    between atoms: _469  and  _471
REMARK  197  A    between atoms: _471  and  _472
REMARK  198  A    between atoms: _471  and  _474
REMARK  199  A    between atoms: _474  and  _475
REMARK  200  A    between atoms: _479  and  _480
REMARK  201  A    between atoms: _485  and  _487
REMARK  202  A    between atoms: _487  and  _488
REMARK  203  A    between atoms: _487  and  _490
REMARK  204  A    between atoms: _490  and  _491
REMARK  205  A    between atoms: _495  and  _496
REMARK  206  A    between atoms: _501  and  _503
REMARK  207  A    between atoms: _503  and  _504
REMARK  208  A    between atoms: _503  and  _506
REMARK  209  A    between atoms: _509  and  _511
REMARK  210  A    between atoms: _511  and  _512
REMARK  211  A    between atoms: _511  and  _514
REMARK  212  A    between atoms: _514  and  _515
REMARK  213  A    between atoms: _520  and  _522
REMARK  214  A    between atoms: _522  and  _523
REMARK  215  A    between atoms: _522  and  _525
REMARK  216  A    between atoms: _525  and  _526
REMARK  217  A    between atoms: _529  and  _531
REMARK  218  A    between atoms: _531  and  _532
REMARK  219  A    between atoms: _531  and  _534
REMARK  220  A    between atoms: _534  and  _535
REMARK  221  A    between atoms: _538  and  _540
REMARK  222  A    between atoms: _540  and  _541
REMARK  223  A    between atoms: _543  and  _545
REMARK  224  A    between atoms: _545  and  _546
REMARK  225  A    between atoms: _545  and  _548
REMARK  226  A    between atoms: _548  and  _549
REMARK  227  A    between atoms: _549  and  _550
REMARK  228  A    between atoms: _550  and  _551
REMARK  229  A    between atoms: _560  and  _562
REMARK  230  A    between atoms: _562  and  _563
REMARK  231  A    between atoms: _562  and  _565
REMARK  232  A    between atoms: _565  and  _566
REMARK                            x       y       z     vdW  Elec       q    Type
REMARK                         _______ _______ _______ _____ _____    ______ ____
ROOT
ATOM      1  O   HOH     1      13.569  -9.586   6.479  0.00  0.00    +0.000 OA
ENDROOT
TORSDOF 0
REMARK  Name = ../refined-set-2016/1kzk/1kzk_pocket.pdb
REMARK  232 active torsions:
REMARK  status: ('A' for Active; 'I' for Inactive)
REMARK    1  A    between atoms: _1  and  _3
REMARK    2  A    between atoms: _3  and  _4
REMARK    3  A    between atoms: _3  and  _6
REMARK    4  A    between atoms: _6  and  _7
REMARK    5  A    between atoms: _7  and  _8
REMARK    6  A    between atoms: _8  and  _9
REMARK    7  A    between atoms: _18  and  _20
REMARK    8  A    between atoms: _20  and  _21
REMARK    9  A    between atoms: _20  and  _23
REMARK   10  A    between atoms: _23  and  _24
REMARK   11  A    between atoms: _27  and  _29
REMARK   12  A    between atoms: _29  and  _30
REMARK   13  A    between atoms: _29  and  _32
REMARK   14  A    between atoms: _32  and  _33
REMARK   15  A    between atoms: _36  and  _38
REMARK   16  A    between atoms: _38  and  _39
REMARK   17  A    between atoms: _38  and  _41
REMARK   18  A    between atoms: _41  and  _42
REMARK   19  A    between atoms: _45  and  _47
REMARK   20  A    between atoms: _47  and  _48
REMARK   21  A    between atoms: _47  and  _50
REMARK   22  A    between atoms: _50  and  _51
REMARK   23  A    between atoms: _54  and  _56
REMARK   24  A    between atoms: _56  and  _57
REMARK   25  A    between atoms: _59  and  _61
REMARK   26  A    between atoms: _61  and  _62
REMARK   27  A    between atoms: _65  and  _67
REMARK   28  A    between atoms: _67  and  _68
REMARK   29  A    between atoms: _67  and  _70
REMARK   30  A    between atoms: _70  and  _71
REMARK   31  A    between atoms: _74  and  _76
REMARK   32  A    between atoms: _76  and  _77
REMARK   33  A    between atoms: _76  and  _79
REMARK   34  A    between atoms: _79  and  _80
REMARK   35  A    between atoms: _83  and  _85
REMARK   36  A    between atoms: _85  and  _86
REMARK   37  A    between atoms: _85  and  _88
REMARK   38  A    between atoms: _88  and  _89
REMARK   39  A    between atoms: _92  and  _94
REMARK   40  A    between atoms: _94  and  _95
REMARK   41  A    between atoms: _94  and  _97
REMARK   42  A    between atoms: _100  and  _102
REMARK   43  A    between atoms: _102  and  _103
REMARK   44  A    between atoms: _102  and  _105
REMARK   45  A    between atoms: _106  and  _107
REMARK   46  A    between atoms: _107  and  _108
REMARK   47  A    between atoms: _108  and  _109
REMARK   48  A    between atoms: _113  and  _115
REMARK   49  A    between atoms: _115  and  _116
REMARK   50  A    between atoms: _115  and  _118
REMARK   51  A    between atoms: _118  and  _119
REMARK   52  A    between atoms: _119  and  _120
REMARK   53  A    between atoms: _122  and  _124
REMARK   54  A    between atoms: _124  and  _125
REMARK   55  A    between atoms: _124  and  _127
REMARK   56  A    between atoms: _127  and  _128
REMARK   57  A    between atoms: _131  and  _133
REMARK   58  A    between atoms: _133  and  _134
REMARK   59  A    between atoms: _136  and  _138
REMARK   60  A    between atoms: _138  and  _139
REMARK   61  A    between atoms: _141  and  _143
REMARK   62  A    between atoms: _143  and  _144
REMARK   63  A    between atoms: _143  and  _146
REMARK   64  A    between atoms: _146  and  _147
REMARK   65  A    between atoms: _150  and  _152
REMARK   66  A    between atoms: _152  and  _153
REMARK   67  A    between atoms: _155  and  _157
REMARK   68  A    between atoms: _157  and  _158
REMARK   69  A    between atoms: _160  and  _162
REMARK   70  A    between atoms: _162  and  _163
REMARK   71  A    between atoms: _162  and  _165
REMARK   72  A    between atoms: _165  and  _166
REMARK   73  A    between atoms: _169  and  _171
REMARK   74  A    between atoms: _171  and  _172
REMARK   75  A    between atoms: _171  and  _174
REMARK   76  A    between atoms: _177  and  _179
REMARK   77  A    between atoms: _179  and  _180
REMARK   78  A    between atoms: _179  and  _182
REMARK   79  A    between atoms: _182  and  _183
REMARK   80  A    between atoms: _186  and  _188
REMARK   81  A    between atoms: _188  and  _189
REMARK   82  A    between atoms: _188  and  _191
REMARK   83  A    between atoms: _191  and  _192
REMARK   84  A    between atoms: _196  and  _197
REMARK   85  A    between atoms: _202  and  _204
REMARK   86  A    between atoms: _204  and  _205
REMARK   87  A    between atoms: _204  and  _207
REMARK   88  A    between atoms: _210  and  _212
REMARK   89  A    between atoms: _212  and  _213
REMARK   90  A    between atoms: _212  and  _215
REMARK   91  A    between atoms: _215  and  _216
REMARK   92  A    between atoms: _221  and  _223
REMARK   93  A    between atoms: _223  and  _224
REMARK   94  A    between atoms: _223  and  _226
REMARK   95  A    between atoms: _226  and  _227
REMARK   96  A    between atoms: _230  and  _232
REMARK   97  A    between atoms: _232  and  _233
REMARK   98  A    between atoms: _232  and  _235
REMARK   99  A    between atoms: _235  and  _236
REMARK  100  A    between atoms: _239  and  _241
REMARK  101  A    between atoms: _241  and  _242
REMARK  102  A    between atoms: _244  and  _246
REMARK  103  A    between atoms: _246  and  _247
REMARK  104  A    between atoms: _246  and  _249
REMARK  105  A    between atoms: _249  and  _250
REMARK  106  A    between atoms: _250  and  _251
REMARK  107  A    between atoms: _251  and  _252
REMARK  108  A    between atoms: _261  and  _263
REMARK  109  A    between atoms: _263  and  _264
REMARK  110  A    between atoms: _263  and  _266
REMARK  111  A    between atoms: _266  and  _267
REMARK  112  A    between atoms: _272  and  _274
REMARK  113  A    between atoms: _274  and  _275
REMARK  114  A    between atoms: _274  and  _277
REMARK  115  A    between atoms: _277  and  _278
REMARK  116  A    between atoms: _278  and  _279
REMARK  117  A    between atoms: _279  and  _280
REMARK  118  A    between atoms: _289  and  _291
REMARK  119  A    between atoms: _291  and  _292
REMARK  120  A    between atoms: _291  and  _294
REMARK  121  A    between atoms: _294  and  _295
REMARK  122  A    between atoms: _298  and  _300
REMARK  123  A    between atoms: _300  and  _301
REMARK  124  A    between atoms: _300  and  _303
REMARK  125  A    between atoms: _303  and  _304
REMARK  126  A    between atoms: _307  and  _309
REMARK  127  A    between atoms: _309  and  _310
REMARK  128  A    between atoms: _309  and  _312
REMARK  129  A    between atoms: _312  and  _313
REMARK  130  A    between atoms: _316  and  _318
REMARK  131  A    between atoms: _318  and  _319
REMARK  132  A    between atoms: _318  and  _321
REMARK  133  A    between atoms: _321  and  _322
REMARK  134  A    between atoms: _325  and  _327
REMARK  135  A    between atoms: _327  and  _328
REMARK  136  A    between atoms: _330  and  _332
REMARK  137  A    between atoms: _332  and  _333
REMARK  138  A    between atoms: _336  and  _338
REMARK  139  A    between atoms: _338  and  _339
REMARK  140  A    between atoms: _338  and  _341
REMARK  141  A    between atoms: _341  and  _342
REMARK  142  A    between atoms: _345  and  _347
REMARK  143  A    between atoms: _347  and  _348
REMARK  144  A    between atoms: _347  and  _350
REMARK  145  A    between atoms: _350  and  _351
REMARK  146  A    between atoms: _354  and  _356
REMARK  147  A    between atoms: _356  and  _357
REMARK  148  A    between atoms: _356  and  _359
REMARK  149  A    between atoms: _359  and  _360
REMARK  150  A    between atoms: _363  and  _365
REMARK  151  A    between atoms: _365  and  _366
REMARK  152  A    between atoms: _365  and  _368
REMARK  153  A    between atoms: _371  and  _373
REMARK  154  A    between atoms: _373  and  _374
REMARK  155  A    between atoms: _373  and  _376
REMARK  156  A    between atoms: _376  and  _377
REMARK  157  A    between atoms: _380  and  _382
REMARK  158  A    between atoms: _382  and  _383
REMARK  159  A    between atoms: _382  and  _385
REMARK  160  A    between atoms: _385  and  _386
REMARK  161  A    between atoms: _386  and  _387
REMARK  162  A    between atoms: _387  and  _388
REMARK  163  A    between atoms: _388  and  _389
REMARK  164  A    between atoms: _393  and  _395
REMARK  165  A    between atoms: _395  and  _396
REMARK  166  A    between atoms: _395  and  _398
REMARK  167  A    between atoms: _398  and  _399
REMARK  168  A    between atoms: _399  and  _400
REMARK  169  A    between atoms: _402  and  _404
REMARK  170  A    between atoms: _404  and  _405
REMARK  171  A    between atoms: _404  and  _407
REMARK  172  A    between atoms: _407  and  _408
REMARK  173  A    between atoms: _411  and  _413
REMARK  174  A    between atoms: _413  and  _414
REMARK  175  A    between atoms: _416  and  _418
REMARK  176  A    between atoms: _418  and  _419
REMARK  177  A    between atoms: _421  and  _423
REMARK  178  A    between atoms: _423  and  _424
REMARK  179  A    between atoms: _423  and  _426
REMARK  180  A    between atoms: _426  and  _427
REMARK  181  A    between atoms: _430  and  _432
REMARK  182  A    between atoms: _432  and  _433
REMARK  183  A    between atoms: _435  and  _437
REMARK  184  A    between atoms: _437  and  _438
REMARK  185  A    between atoms: _440  and  _442
REMARK  186  A    between atoms: _442  and  _443
REMARK  187  A    between atoms: _442  and  _445
REMARK  188  A    between atoms: _445  and  _446
REMARK  189  A    between atoms: _452  and  _454
REMARK  190  A    between atoms: _454  and  _455
REMARK  191  A    between atoms: _454  and  _457
REMARK  192  A    between atoms: _457  and  _458
REMARK  193  A    between atoms: _461  and  _463
REMARK  194  A    between atoms: _463  and  _464
REMARK  195  A    between atoms: _463  and  _466
REMARK  196  A    between atoms: _469  and  _471
REMARK  197  A    between atoms: _471  and  _472
REMARK  198  A    between atoms: _471  and  _474
REMARK  199  A    between atoms: _474  and  _475
REMARK  200  A    between atoms: _479  and  _480
REMARK  201  A    between atoms: _485  and  _487
REMARK  202  A    between atoms: _487  and  _488
REMARK  203  A    between atoms: _487  and  _490
REMARK  204  A    between atoms: _490  and  _491
REMARK  205  A    between atoms: _495  and  _496
REMARK  206  A    between atoms: _501  and  _503
REMARK  207  A    between atoms: _503  and  _504
REMARK  208  A    between atoms: _503  and  _506
REMARK  209  A    between atoms: _509  and  _511
REMARK  210  A    between atoms: _511  and  _512
REMARK  211  A    between atoms: _511  and  _514
REMARK  212  A    between atoms: _514  and  _515
REMARK  213  A    between atoms: _520  and  _522
REMARK  214  A    between atoms: _522  and  _523
REMARK  215  A    between atoms: _522  and  _525
REMARK  216  A    between atoms: _525  and  _526
REMARK  217  A    between atoms: _529  and  _531
REMARK  218  A    between atoms: _531  and  _532
REMARK  219  A    between atoms: _531  and  _534
REMARK  220  A    between atoms: _534  and  _535
REMARK  221  A    between atoms: _538  and  _540
REMARK  222  A    between atoms: _540  and  _541
REMARK  223  A    between atoms: _543  and  _545
REMARK  224  A    between atoms: _545  and  _546
REMARK  225  A    between atoms: _545  and  _548
REMARK  226  A    between atoms: _548  and  _549
REMARK  227  A    between atoms: _549  and  _550
REMARK  228  A    between atoms: _550  and  _551
REMARK  229  A    between atoms: _560  and  _562
REMARK  230  A    between atoms: _562  and  _563
REMARK  231  A    between atoms: _562  and  _565
REMARK  232  A    between atoms: _565  and  _566
REMARK                            x       y       z     vdW  Elec       q    Type
REMARK                         _______ _______ _______ _____ _____    ______ ____
ROOT
ATOM      1  O   HOH     1       9.133  -6.023   9.685  0.00  0.00    +0.000 OA
ENDROOT
TORSDOF 0
REMARK  Name = ../refined-set-2016/1kzk/1kzk_pocket.pdb
REMARK  232 active torsions:
REMARK  status: ('A' for Active; 'I' for Inactive)
REMARK    1  A    between atoms: _1  and  _3
REMARK    2  A    between atoms: _3  and  _4
REMARK    3  A    between atoms: _3  and  _6
REMARK    4  A    between atoms: _6  and  _7
REMARK    5  A    between atoms: _7  and  _8
REMARK    6  A    between atoms: _8  and  _9
REMARK    7  A    between atoms: _18  and  _20
REMARK    8  A    between atoms: _20  and  _21
REMARK    9  A    between atoms: _20  and  _23
REMARK   10  A    between atoms: _23  and  _24
REMARK   11  A    between atoms: _27  and  _29
REMARK   12  A    between atoms: _29  and  _30
REMARK   13  A    between atoms: _29  and  _32
REMARK   14  A    between atoms: _32  and  _33
REMARK   15  A    between atoms: _36  and  _38
REMARK   16  A    between atoms: _38  and  _39
REMARK   17  A    between atoms: _38  and  _41
REMARK   18  A    between atoms: _41  and  _42
REMARK   19  A    between atoms: _45  and  _47
REMARK   20  A    between atoms: _47  and  _48
REMARK   21  A    between atoms: _47  and  _50
REMARK   22  A    between atoms: _50  and  _51
REMARK   23  A    between atoms: _54  and  _56
REMARK   24  A    between atoms: _56  and  _57
REMARK   25  A    between atoms: _59  and  _61
REMARK   26  A    between atoms: _61  and  _62
REMARK   27  A    between atoms: _65  and  _67
REMARK   28  A    between atoms: _67  and  _68
REMARK   29  A    between atoms: _67  and  _70
REMARK   30  A    between atoms: _70  and  _71
REMARK   31  A    between atoms: _74  and  _76
REMARK   32  A    between atoms: _76  and  _77
REMARK   33  A    between atoms: _76  and  _79
REMARK   34  A    between atoms: _79  and  _80
REMARK   35  A    between atoms: _83  and  _85
REMARK   36  A    between atoms: _85  and  _86
REMARK   37  A    between atoms: _85  and  _88
REMARK   38  A    between atoms: _88  and  _89
REMARK   39  A    between atoms: _92  and  _94
REMARK   40  A    between atoms: _94  and  _95
REMARK   41  A    between atoms: _94  and  _97
REMARK   42  A    between atoms: _100  and  _102
REMARK   43  A    between atoms: _102  and  _103
REMARK   44  A    between atoms: _102  and  _105
REMARK   45  A    between atoms: _106  and  _107
REMARK   46  A    between atoms: _107  and  _108
REMARK   47  A    between atoms: _108  and  _109
REMARK   48  A    between atoms: _113  and  _115
REMARK   49  A    between atoms: _115  and  _116
REMARK   50  A    between atoms: _115  and  _118
REMARK   51  A    between atoms: _118  and  _119
REMARK   52  A    between atoms: _119  and  _120
REMARK   53  A    between atoms: _122  and  _124
REMARK   54  A    between atoms: _124  and  _125
REMARK   55  A    between atoms: _124  and  _127
REMARK   56  A    between atoms: _127  and  _128
REMARK   57  A    between atoms: _131  and  _133
REMARK   58  A    between atoms: _133  and  _134
REMARK   59  A    between atoms: _136  and  _138
REMARK   60  A    between atoms: _138  and  _139
REMARK   61  A    between atoms: _141  and  _143
REMARK   62  A    between atoms: _143  and  _144
REMARK   63  A    between atoms: _143  and  _146
REMARK   64  A    between atoms: _146  and  _147
REMARK   65  A    between atoms: _150  and  _152
REMARK   66  A    between atoms: _152  and  _153
REMARK   67  A    between atoms: _155  and  _157
REMARK   68  A    between atoms: _157  and  _158
REMARK   69  A    between atoms: _160  and  _162
REMARK   70  A    between atoms: _162  and  _163
REMARK   71  A    between atoms: _162  and  _165
REMARK   72  A    between atoms: _165  and  _166
REMARK   73  A    between atoms: _169  and  _171
REMARK   74  A    between atoms: _171  and  _172
REMARK   75  A    between atoms: _171  and  _174
REMARK   76  A    between atoms: _177  and  _179
REMARK   77  A    between atoms: _179  and  _180
REMARK   78  A    between atoms: _179  and  _182
REMARK   79  A    between atoms: _182  and  _183
REMARK   80  A    between atoms: _186  and  _188
REMARK   81  A    between atoms: _188  and  _189
REMARK   82  A    between atoms: _188  and  _191
REMARK   83  A    between atoms: _191  and  _192
REMARK   84  A    between atoms: _196  and  _197
REMARK   85  A    between atoms: _202  and  _204
REMARK   86  A    between atoms: _204  and  _205
REMARK   87  A    between atoms: _204  and  _207
REMARK   88  A    between atoms: _210  and  _212
REMARK   89  A    between atoms: _212  and  _213
REMARK   90  A    between atoms: _212  and  _215
REMARK   91  A    between atoms: _215  and  _216
REMARK   92  A    between atoms: _221  and  _223
REMARK   93  A    between atoms: _223  and  _224
REMARK   94  A    between atoms: _223  and  _226
REMARK   95  A    between atoms: _226  and  _227
REMARK   96  A    between atoms: _230  and  _232
REMARK   97  A    between atoms: _232  and  _233
REMARK   98  A    between atoms: _232  and  _235
REMARK   99  A    between atoms: _235  and  _236
REMARK  100  A    between atoms: _239  and  _241
REMARK  101  A    between atoms: _241  and  _242
REMARK  102  A    between atoms: _244  and  _246
REMARK  103  A    between atoms: _246  and  _247
REMARK  104  A    between atoms: _246  and  _249
REMARK  105  A    between atoms: _249  and  _250
REMARK  106  A    between atoms: _250  and  _251
REMARK  107  A    between atoms: _251  and  _252
REMARK  108  A    between atoms: _261  and  _263
REMARK  109  A    between atoms: _263  and  _264
REMARK  110  A    between atoms: _263  and  _266
REMARK  111  A    between atoms: _266  and  _267
REMARK  112  A    between atoms: _272  and  _274
REMARK  113  A    between atoms: _274  and  _275
REMARK  114  A    between atoms: _274  and  _277
REMARK  115  A    between atoms: _277  and  _278
REMARK  116  A    between atoms: _278  and  _279
REMARK  117  A    between atoms: _279  and  _280
REMARK  118  A    between atoms: _289  and  _291
REMARK  119  A    between atoms: _291  and  _292
REMARK  120  A    between atoms: _291  and  _294
REMARK  121  A    between atoms: _294  and  _295
REMARK  122  A    between atoms: _298  and  _300
REMARK  123  A    between atoms: _300  and  _301
REMARK  124  A    between atoms: _300  and  _303
REMARK  125  A    between atoms: _303  and  _304
REMARK  126  A    between atoms: _307  and  _309
REMARK  127  A    between atoms: _309  and  _310
REMARK  128  A    between atoms: _309  and  _312
REMARK  129  A    between atoms: _312  and  _313
REMARK  130  A    between atoms: _316  and  _318
REMARK  131  A    between atoms: _318  and  _319
REMARK  132  A    between atoms: _318  and  _321
REMARK  133  A    between atoms: _321  and  _322
REMARK  134  A    between atoms: _325  and  _327
REMARK  135  A    between atoms: _327  and  _328
REMARK  136  A    between atoms: _330  and  _332
REMARK  137  A    between atoms: _332  and  _333
REMARK  138  A    between atoms: _336  and  _338
REMARK  139  A    between atoms: _338  and  _339
REMARK  140  A    between atoms: _338  and  _341
REMARK  141  A    between atoms: _341  and  _342
REMARK  142  A    between atoms: _345  and  _347
REMARK  143  A    between atoms: _347  and  _348
REMARK  144  A    between atoms: _347  and  _350
REMARK  145  A    between atoms: _350  and  _351
REMARK  146  A    between atoms: _354  and  _356
REMARK  147  A    between atoms: _356  and  _357
REMARK  148  A    between atoms: _356  and  _359
REMARK  149  A    between atoms: _359  and  _360
REMARK  150  A    between atoms: _363  and  _365
REMARK  151  A    between atoms: _365  and  _366
REMARK  152  A    between atoms: _365  and  _368
REMARK  153  A    between atoms: _371  and  _373
REMARK  154  A    between atoms: _373  and  _374
REMARK  155  A    between atoms: _373  and  _376
REMARK  156  A    between atoms: _376  and  _377
REMARK  157  A    between atoms: _380  and  _382
REMARK  158  A    between atoms: _382  and  _383
REMARK  159  A    between atoms: _382  and  _385
REMARK  160  A    between atoms: _385  and  _386
REMARK  161  A    between atoms: _386  and  _387
REMARK  162  A    between atoms: _387  and  _388
REMARK  163  A    between atoms: _388  and  _389
REMARK  164  A    between atoms: _393  and  _395
REMARK  165  A    between atoms: _395  and  _396
REMARK  166  A    between atoms: _395  and  _398
REMARK  167  A    between atoms: _398  and  _399
REMARK  168  A    between atoms: _399  and  _400
REMARK  169  A    between atoms: _402  and  _404
REMARK  170  A    between atoms: _404  and  _405
REMARK  171  A    between atoms: _404  and  _407
REMARK  172  A    between atoms: _407  and  _408
REMARK  173  A    between atoms: _411  and  _413
REMARK  174  A    between atoms: _413  and  _414
REMARK  175  A    between atoms: _416  and  _418
REMARK  176  A    between atoms: _418  and  _419
REMARK  177  A    between atoms: _421  and  _423
REMARK  178  A    between atoms: _423  and  _424
REMARK  179  A    between atoms: _423  and  _426
REMARK  180  A    between atoms: _426  and  _427
REMARK  181  A    between atoms: _430  and  _432
REMARK  182  A    between atoms: _432  and  _433
REMARK  183  A    between atoms: _435  and  _437
REMARK  184  A    between atoms: _437  and  _438
REMARK  185  A    between atoms: _440  and  _442
REMARK  186  A    between atoms: _442  and  _443
REMARK  187  A    between atoms: _442  and  _445
REMARK  188  A    between atoms: _445  and  _446
REMARK  189  A    between atoms: _452  and  _454
REMARK  190  A    between atoms: _454  and  _455
REMARK  191  A    between atoms: _454  and  _457
REMARK  192  A    between atoms: _457  and  _458
REMARK  193  A    between atoms: _461  and  _463
REMARK  194  A    between atoms: _463  and  _464
REMARK  195  A    between atoms: _463  and  _466
REMARK  196  A    between atoms: _469  and  _471
REMARK  197  A    between atoms: _471  and  _472
REMARK  198  A    between atoms: _471  and  _474
REMARK  199  A    between atoms: _474  and  _475
REMARK  200  A    between atoms: _479  and  _480
REMARK  201  A    between atoms: _485  and  _487
REMARK  202  A    between atoms: _487  and  _488
REMARK  203  A    between atoms: _487  and  _490
REMARK  204  A    between atoms: _490  and  _491
REMARK  205  A    between atoms: _495  and  _496
REMARK  206  A    between atoms: _501  and  _503
REMARK  207  A    between atoms: _503  and  _504
REMARK  208  A    between atoms: _503  and  _506
REMARK  209  A    between atoms: _509  and  _511
REMARK  210  A    between atoms: _511  and  _512
REMARK  211  A    between atoms: _511  and  _514
REMARK  212  A    between atoms: _514  and  _515
REMARK  213  A    between atoms: _520  and  _522
REMARK  214  A    between atoms: _522  and  _523
REMARK  215  A    between atoms: _522  and  _525
REMARK  216  A    between atoms: _525  and  _526
REMARK  217  A    between atoms: _529  and  _531
REMARK  218  A    between atoms: _531  and  _532
REMARK  219  A    between atoms: _531  and  _534
REMARK  220  A    between atoms: _534  and  _535
REMARK  221  A    between atoms: _538  and  _540
REMARK  222  A    between atoms: _540  and  _541
REMARK  223  A    between atoms: _543  and  _545
REMARK  224  A    between atoms: _545  and  _546
REMARK  225  A    between atoms: _545  and  _548
REMARK  226  A    between atoms: _548  and  _549
REMARK  227  A    between atoms: _549  and  _550
REMARK  228  A    between atoms: _550  and  _551
REMARK  229  A    between atoms: _560  and  _562
REMARK  230  A    between atoms: _562  and  _563
REMARK  231  A    between atoms: _562  and  _565
REMARK  232  A    between atoms: _565  and  _566
REMARK                            x       y       z     vdW  Elec       q    Type
REMARK                         _______ _______ _______ _____ _____    ______ ____
ROOT
ATOM      1  O   HOH     1      11.957   7.839  19.909  0.00  0.00    +0.000 OA
ENDROOT
TORSDOF 0
REMARK  Name = ../refined-set-2016/1kzk/1kzk_pocket.pdb
REMARK  232 active torsions:
REMARK  status: ('A' for Active; 'I' for Inactive)
REMARK    1  A    between atoms: _1  and  _3
REMARK    2  A    between atoms: _3  and  _4
REMARK    3  A    between atoms: _3  and  _6
REMARK    4  A    between atoms: _6  and  _7
REMARK    5  A    between atoms: _7  and  _8
REMARK    6  A    between atoms: _8  and  _9
REMARK    7  A    between atoms: _18  and  _20
REMARK    8  A    between atoms: _20  and  _21
REMARK    9  A    between atoms: _20  and  _23
REMARK   10  A    between atoms: _23  and  _24
REMARK   11  A    between atoms: _27  and  _29
REMARK   12  A    between atoms: _29  and  _30
REMARK   13  A    between atoms: _29  and  _32
REMARK   14  A    between atoms: _32  and  _33
REMARK   15  A    between atoms: _36  and  _38
REMARK   16  A    between atoms: _38  and  _39
REMARK   17  A    between atoms: _38  and  _41
REMARK   18  A    between atoms: _41  and  _42
REMARK   19  A    between atoms: _45  and  _47
REMARK   20  A    between atoms: _47  and  _48
REMARK   21  A    between atoms: _47  and  _50
REMARK   22  A    between atoms: _50  and  _51
REMARK   23  A    between atoms: _54  and  _56
REMARK   24  A    between atoms: _56  and  _57
REMARK   25  A    between atoms: _59  and  _61
REMARK   26  A    between atoms: _61  and  _62
REMARK   27  A    between atoms: _65  and  _67
REMARK   28  A    between atoms: _67  and  _68
REMARK   29  A    between atoms: _67  and  _70
REMARK   30  A    between atoms: _70  and  _71
REMARK   31  A    between atoms: _74  and  _76
REMARK   32  A    between atoms: _76  and  _77
REMARK   33  A    between atoms: _76  and  _79
REMARK   34  A    between atoms: _79  and  _80
REMARK   35  A    between atoms: _83  and  _85
REMARK   36  A    between atoms: _85  and  _86
REMARK   37  A    between atoms: _85  and  _88
REMARK   38  A    between atoms: _88  and  _89
REMARK   39  A    between atoms: _92  and  _94
REMARK   40  A    between atoms: _94  and  _95
REMARK   41  A    between atoms: _94  and  _97
REMARK   42  A    between atoms: _100  and  _102
REMARK   43  A    between atoms: _102  and  _103
REMARK   44  A    between atoms: _102  and  _105
REMARK   45  A    between atoms: _106  and  _107
REMARK   46  A    between atoms: _107  and  _108
REMARK   47  A    between atoms: _108  and  _109
REMARK   48  A    between atoms: _113  and  _115
REMARK   49  A    between atoms: _115  and  _116
REMARK   50  A    between atoms: _115  and  _118
REMARK   51  A    between atoms: _118  and  _119
REMARK   52  A    between atoms: _119  and  _120
REMARK   53  A    between atoms: _122  and  _124
REMARK   54  A    between atoms: _124  and  _125
REMARK   55  A    between atoms: _124  and  _127
REMARK   56  A    between atoms: _127  and  _128
REMARK   57  A    between atoms: _131  and  _133
REMARK   58  A    between atoms: _133  and  _134
REMARK   59  A    between atoms: _136  and  _138
REMARK   60  A    between atoms: _138  and  _139
REMARK   61  A    between atoms: _141  and  _143
REMARK   62  A    between atoms: _143  and  _144
REMARK   63  A    between atoms: _143  and  _146
REMARK   64  A    between atoms: _146  and  _147
REMARK   65  A    between atoms: _150  and  _152
REMARK   66  A    between atoms: _152  and  _153
REMARK   67  A    between atoms: _155  and  _157
REMARK   68  A    between atoms: _157  and  _158
REMARK   69  A    between atoms: _160  and  _162
REMARK   70  A    between atoms: _162  and  _163
REMARK   71  A    between atoms: _162  and  _165
REMARK   72  A    between atoms: _165  and  _166
REMARK   73  A    between atoms: _169  and  _171
REMARK   74  A    between atoms: _171  and  _172
REMARK   75  A    between atoms: _171  and  _174
REMARK   76  A    between atoms: _177  and  _179
REMARK   77  A    between atoms: _179  and  _180
REMARK   78  A    between atoms: _179  and  _182
REMARK   79  A    between atoms: _182  and  _183
REMARK   80  A    between atoms: _186  and  _188
REMARK   81  A    between atoms: _188  and  _189
REMARK   82  A    between atoms: _188  and  _191
REMARK   83  A    between atoms: _191  and  _192
REMARK   84  A    between atoms: _196  and  _197
REMARK   85  A    between atoms: _202  and  _204
REMARK   86  A    between atoms: _204  and  _205
REMARK   87  A    between atoms: _204  and  _207
REMARK   88  A    between atoms: _210  and  _212
REMARK   89  A    between atoms: _212  and  _213
REMARK   90  A    between atoms: _212  and  _215
REMARK   91  A    between atoms: _215  and  _216
REMARK   92  A    between atoms: _221  and  _223
REMARK   93  A    between atoms: _223  and  _224
REMARK   94  A    between atoms: _223  and  _226
REMARK   95  A    between atoms: _226  and  _227
REMARK   96  A    between atoms: _230  and  _232
REMARK   97  A    between atoms: _232  and  _233
REMARK   98  A    between atoms: _232  and  _235
REMARK   99  A    between atoms: _235  and  _236
REMARK  100  A    between atoms: _239  and  _241
REMARK  101  A    between atoms: _241  and  _242
REMARK  102  A    between atoms: _244  and  _246
REMARK  103  A    between atoms: _246  and  _247
REMARK  104  A    between atoms: _246  and  _249
REMARK  105  A    between atoms: _249  and  _250
REMARK  106  A    between atoms: _250  and  _251
REMARK  107  A    between atoms: _251  and  _252
REMARK  108  A    between atoms: _261  and  _263
REMARK  109  A    between atoms: _263  and  _264
REMARK  110  A    between atoms: _263  and  _266
REMARK  111  A    between atoms: _266  and  _267
REMARK  112  A    between atoms: _272  and  _274
REMARK  113  A    between atoms: _274  and  _275
REMARK  114  A    between atoms: _274  and  _277
REMARK  115  A    between atoms: _277  and  _278
REMARK  116  A    between atoms: _278  and  _279
REMARK  117  A    between atoms: _279  and  _280
REMARK  118  A    between atoms: _289  and  _291
REMARK  119  A    between atoms: _291  and  _292
REMARK  120  A    between atoms: _291  and  _294
REMARK  121  A    between atoms: _294  and  _295
REMARK  122  A    between atoms: _298  and  _300
REMARK  123  A    between atoms: _300  and  _301
REMARK  124  A    between atoms: _300  and  _303
REMARK  125  A    between atoms: _303  and  _304
REMARK  126  A    between atoms: _307  and  _309
REMARK  127  A    between atoms: _309  and  _310
REMARK  128  A    between atoms: _309  and  _312
REMARK  129  A    between atoms: _312  and  _313
REMARK  130  A    between atoms: _316  and  _318
REMARK  131  A    between atoms: _318  and  _319
REMARK  132  A    between atoms: _318  and  _321
REMARK  133  A    between atoms: _321  and  _322
REMARK  134  A    between atoms: _325  and  _327
REMARK  135  A    between atoms: _327  and  _328
REMARK  136  A    between atoms: _330  and  _332
REMARK  137  A    between atoms: _332  and  _333
REMARK  138  A    between atoms: _336  and  _338
REMARK  139  A    between atoms: _338  and  _339
REMARK  140  A    between atoms: _338  and  _341
REMARK  141  A    between atoms: _341  and  _342
REMARK  142  A    between atoms: _345  and  _347
REMARK  143  A    between atoms: _347  and  _348
REMARK  144  A    between atoms: _347  and  _350
REMARK  145  A    between atoms: _350  and  _351
REMARK  146  A    between atoms: _354  and  _356
REMARK  147  A    between atoms: _356  and  _357
REMARK  148  A    between atoms: _356  and  _359
REMARK  149  A    between atoms: _359  and  _360
REMARK  150  A    between atoms: _363  and  _365
REMARK  151  A    between atoms: _365  and  _366
REMARK  152  A    between atoms: _365  and  _368
REMARK  153  A    between atoms: _371  and  _373
REMARK  154  A    between atoms: _373  and  _374
REMARK  155  A    between atoms: _373  and  _376
REMARK  156  A    between atoms: _376  and  _377
REMARK  157  A    between atoms: _380  and  _382
REMARK  158  A    between atoms: _382  and  _383
REMARK  159  A    between atoms: _382  and  _385
REMARK  160  A    between atoms: _385  and  _386
REMARK  161  A    between atoms: _386  and  _387
REMARK  162  A    between atoms: _387  and  _388
REMARK  163  A    between atoms: _388  and  _389
REMARK  164  A    between atoms: _393  and  _395
REMARK  165  A    between atoms: _395  and  _396
REMARK  166  A    between atoms: _395  and  _398
REMARK  167  A    between atoms: _398  and  _399
REMARK  168  A    between atoms: _399  and  _400
REMARK  169  A    between atoms: _402  and  _404
REMARK  170  A    between atoms: _404  and  _405
REMARK  171  A    between atoms: _404  and  _407
REMARK  172  A    between atoms: _407  and  _408
REMARK  173  A    between atoms: _411  and  _413
REMARK  174  A    between atoms: _413  and  _414
REMARK  175  A    between atoms: _416  and  _418
REMARK  176  A    between atoms: _418  and  _419
REMARK  177  A    between atoms: _421  and  _423
REMARK  178  A    between atoms: _423  and  _424
REMARK  179  A    between atoms: _423  and  _426
REMARK  180  A    between atoms: _426  and  _427
REMARK  181  A    between atoms: _430  and  _432
REMARK  182  A    between atoms: _432  and  _433
REMARK  183  A    between atoms: _435  and  _437
REMARK  184  A    between atoms: _437  and  _438
REMARK  185  A    between atoms: _440  and  _442
REMARK  186  A    between atoms: _442  and  _443
REMARK  187  A    between atoms: _442  and  _445
REMARK  188  A    between atoms: _445  and  _446
REMARK  189  A    between atoms: _452  and  _454
REMARK  190  A    between atoms: _454  and  _455
REMARK  191  A    between atoms: _454  and  _457
REMARK  192  A    between atoms: _457  and  _458
REMARK  193  A    between atoms: _461  and  _463
REMARK  194  A    between atoms: _463  and  _464
REMARK  195  A    between atoms: _463  and  _466
REMARK  196  A    between atoms: _469  and  _471
REMARK  197  A    between atoms: _471  and  _472
REMARK  198  A    between atoms: _471  and  _474
REMARK  199  A    between atoms: _474  and  _475
REMARK  200  A    between atoms: _479  and  _480
REMARK  201  A    between atoms: _485  and  _487
REMARK  202  A    between atoms: _487  and  _488
REMARK  203  A    between atoms: _487  and  _490
REMARK  204  A    between atoms: _490  and  _491
REMARK  205  A    between atoms: _495  and  _496
REMARK  206  A    between atoms: _501  and  _503
REMARK  207  A    between atoms: _503  and  _504
REMARK  208  A    between atoms: _503  and  _506
REMARK  209  A    between atoms: _509  and  _511
REMARK  210  A    between atoms: _511  and  _512
REMARK  211  A    between atoms: _511  and  _514
REMARK  212  A    between atoms: _514  and  _515
REMARK  213  A    between atoms: _520  and  _522
REMARK  214  A    between atoms: _522  and  _523
REMARK  215  A    between atoms: _522  and  _525
REMARK  216  A    between atoms: _525  and  _526
REMARK  217  A    between atoms: _529  and  _531
REMARK  218  A    between atoms: _531  and  _532
REMARK  219  A    between atoms: _531  and  _534
REMARK  220  A    between atoms: _534  and  _535
REMARK  221  A    between atoms: _538  and  _540
REMARK  222  A    between atoms: _540  and  _541
REMARK  223  A    between atoms: _543  and  _545
REMARK  224  A    between atoms: _545  and  _546
REMARK  225  A    between atoms: _545  and  _548
REMARK  226  A    between atoms: _548  and  _549
REMARK  227  A    between atoms: _549  and  _550
REMARK  228  A    between atoms: _550  and  _551
REMARK  229  A    between atoms: _560  and  _562
REMARK  230  A    between atoms: _562  and  _563
REMARK  231  A    between atoms: _562  and  _565
REMARK  232  A    between atoms: _565  and  _566
REMARK                            x       y       z     vdW  Elec       q    Type
REMARK                         _______ _______ _______ _____ _____    ______ ____
ROOT
ATOM      1  O   HOH     1      15.004   8.147  20.483  0.00  0.00    +0.000 OA
ENDROOT
TORSDOF 0
REMARK  Name = ../refined-set-2016/1kzk/1kzk_pocket.pdb
REMARK  232 active torsions:
REMARK  status: ('A' for Active; 'I' for Inactive)
REMARK    1  A    between atoms: _1  and  _3
REMARK    2  A    between atoms: _3  and  _4
REMARK    3  A    between atoms: _3  and  _6
REMARK    4  A    between atoms: _6  and  _7
REMARK    5  A    between atoms: _7  and  _8
REMARK    6  A    between atoms: _8  and  _9
REMARK    7  A    between atoms: _18  and  _20
REMARK    8  A    between atoms: _20  and  _21
REMARK    9  A    between atoms: _20  and  _23
REMARK   10  A    between atoms: _23  and  _24
REMARK   11  A    between atoms: _27  and  _29
REMARK   12  A    between atoms: _29  and  _30
REMARK   13  A    between atoms: _29  and  _32
REMARK   14  A    between atoms: _32  and  _33
REMARK   15  A    between atoms: _36  and  _38
REMARK   16  A    between atoms: _38  and  _39
REMARK   17  A    between atoms: _38  and  _41
REMARK   18  A    between atoms: _41  and  _42
REMARK   19  A    between atoms: _45  and  _47
REMARK   20  A    between atoms: _47  and  _48
REMARK   21  A    between atoms: _47  and  _50
REMARK   22  A    between atoms: _50  and  _51
REMARK   23  A    between atoms: _54  and  _56
REMARK   24  A    between atoms: _56  and  _57
REMARK   25  A    between atoms: _59  and  _61
REMARK   26  A    between atoms: _61  and  _62
REMARK   27  A    between atoms: _65  and  _67
REMARK   28  A    between atoms: _67  and  _68
REMARK   29  A    between atoms: _67  and  _70
REMARK   30  A    between atoms: _70  and  _71
REMARK   31  A    between atoms: _74  and  _76
REMARK   32  A    between atoms: _76  and  _77
REMARK   33  A    between atoms: _76  and  _79
REMARK   34  A    between atoms: _79  and  _80
REMARK   35  A    between atoms: _83  and  _85
REMARK   36  A    between atoms: _85  and  _86
REMARK   37  A    between atoms: _85  and  _88
REMARK   38  A    between atoms: _88  and  _89
REMARK   39  A    between atoms: _92  and  _94
REMARK   40  A    between atoms: _94  and  _95
REMARK   41  A    between atoms: _94  and  _97
REMARK   42  A    between atoms: _100  and  _102
REMARK   43  A    between atoms: _102  and  _103
REMARK   44  A    between atoms: _102  and  _105
REMARK   45  A    between atoms: _106  and  _107
REMARK   46  A    between atoms: _107  and  _108
REMARK   47  A    between atoms: _108  and  _109
REMARK   48  A    between atoms: _113  and  _115
REMARK   49  A    between atoms: _115  and  _116
REMARK   50  A    between atoms: _115  and  _118
REMARK   51  A    between atoms: _118  and  _119
REMARK   52  A    between atoms: _119  and  _120
REMARK   53  A    between atoms: _122  and  _124
REMARK   54  A    between atoms: _124  and  _125
REMARK   55  A    between atoms: _124  and  _127
REMARK   56  A    between atoms: _127  and  _128
REMARK   57  A    between atoms: _131  and  _133
REMARK   58  A    between atoms: _133  and  _134
REMARK   59  A    between atoms: _136  and  _138
REMARK   60  A    between atoms: _138  and  _139
REMARK   61  A    between atoms: _141  and  _143
REMARK   62  A    between atoms: _143  and  _144
REMARK   63  A    between atoms: _143  and  _146
REMARK   64  A    between atoms: _146  and  _147
REMARK   65  A    between atoms: _150  and  _152
REMARK   66  A    between atoms: _152  and  _153
REMARK   67  A    between atoms: _155  and  _157
REMARK   68  A    between atoms: _157  and  _158
REMARK   69  A    between atoms: _160  and  _162
REMARK   70  A    between atoms: _162  and  _163
REMARK   71  A    between atoms: _162  and  _165
REMARK   72  A    between atoms: _165  and  _166
REMARK   73  A    between atoms: _169  and  _171
REMARK   74  A    between atoms: _171  and  _172
REMARK   75  A    between atoms: _171  and  _174
REMARK   76  A    between atoms: _177  and  _179
REMARK   77  A    between atoms: _179  and  _180
REMARK   78  A    between atoms: _179  and  _182
REMARK   79  A    between atoms: _182  and  _183
REMARK   80  A    between atoms: _186  and  _188
REMARK   81  A    between atoms: _188  and  _189
REMARK   82  A    between atoms: _188  and  _191
REMARK   83  A    between atoms: _191  and  _192
REMARK   84  A    between atoms: _196  and  _197
REMARK   85  A    between atoms: _202  and  _204
REMARK   86  A    between atoms: _204  and  _205
REMARK   87  A    between atoms: _204  and  _207
REMARK   88  A    between atoms: _210  and  _212
REMARK   89  A    between atoms: _212  and  _213
REMARK   90  A    between atoms: _212  and  _215
REMARK   91  A    between atoms: _215  and  _216
REMARK   92  A    between atoms: _221  and  _223
REMARK   93  A    between atoms: _223  and  _224
REMARK   94  A    between atoms: _223  and  _226
REMARK   95  A    between atoms: _226  and  _227
REMARK   96  A    between atoms: _230  and  _232
REMARK   97  A    between atoms: _232  and  _233
REMARK   98  A    between atoms: _232  and  _235
REMARK   99  A    between atoms: _235  and  _236
REMARK  100  A    between atoms: _239  and  _241
REMARK  101  A    between atoms: _241  and  _242
REMARK  102  A    between atoms: _244  and  _246
REMARK  103  A    between atoms: _246  and  _247
REMARK  104  A    between atoms: _246  and  _249
REMARK  105  A    between atoms: _249  and  _250
REMARK  106  A    between atoms: _250  and  _251
REMARK  107  A    between atoms: _251  and  _252
REMARK  108  A    between atoms: _261  and  _263
REMARK  109  A    between atoms: _263  and  _264
REMARK  110  A    between atoms: _263  and  _266
REMARK  111  A    between atoms: _266  and  _267
REMARK  112  A    between atoms: _272  and  _274
REMARK  113  A    between atoms: _274  and  _275
REMARK  114  A    between atoms: _274  and  _277
REMARK  115  A    between atoms: _277  and  _278
REMARK  116  A    between atoms: _278  and  _279
REMARK  117  A    between atoms: _279  and  _280
REMARK  118  A    between atoms: _289  and  _291
REMARK  119  A    between atoms: _291  and  _292
REMARK  120  A    between atoms: _291  and  _294
REMARK  121  A    between atoms: _294  and  _295
REMARK  122  A    between atoms: _298  and  _300
REMARK  123  A    between atoms: _300  and  _301
REMARK  124  A    between atoms: _300  and  _303
REMARK  125  A    between atoms: _303  and  _304
REMARK  126  A    between atoms: _307  and  _309
REMARK  127  A    between atoms: _309  and  _310
REMARK  128  A    between atoms: _309  and  _312
REMARK  129  A    between atoms: _312  and  _313
REMARK  130  A    between atoms: _316  and  _318
REMARK  131  A    between atoms: _318  and  _319
REMARK  132  A    between atoms: _318  and  _321
REMARK  133  A    between atoms: _321  and  _322
REMARK  134  A    between atoms: _325  and  _327
REMARK  135  A    between atoms: _327  and  _328
REMARK  136  A    between atoms: _330  and  _332
REMARK  137  A    between atoms: _332  and  _333
REMARK  138  A    between atoms: _336  and  _338
REMARK  139  A    between atoms: _338  and  _339
REMARK  140  A    between atoms: _338  and  _341
REMARK  141  A    between atoms: _341  and  _342
REMARK  142  A    between atoms: _345  and  _347
REMARK  143  A    between atoms: _347  and  _348
REMARK  144  A    between atoms: _347  and  _350
REMARK  145  A    between atoms: _350  and  _351
REMARK  146  A    between atoms: _354  and  _356
REMARK  147  A    between atoms: _356  and  _357
REMARK  148  A    between atoms: _356  and  _359
REMARK  149  A    between atoms: _359  and  _360
REMARK  150  A    between atoms: _363  and  _365
REMARK  151  A    between atoms: _365  and  _366
REMARK  152  A    between atoms: _365  and  _368
REMARK  153  A    between atoms: _371  and  _373
REMARK  154  A    between atoms: _373  and  _374
REMARK  155  A    between atoms: _373  and  _376
REMARK  156  A    between atoms: _376  and  _377
REMARK  157  A    between atoms: _380  and  _382
REMARK  158  A    between atoms: _382  and  _383
REMARK  159  A    between atoms: _382  and  _385
REMARK  160  A    between atoms: _385  and  _386
REMARK  161  A    between atoms: _386  and  _387
REMARK  162  A    between atoms: _387  and  _388
REMARK  163  A    between atoms: _388  and  _389
REMARK  164  A    between atoms: _393  and  _395
REMARK  165  A    between atoms: _395  and  _396
REMARK  166  A    between atoms: _395  and  _398
REMARK  167  A    between atoms: _398  and  _399
REMARK  168  A    between atoms: _399  and  _400
REMARK  169  A    between atoms: _402  and  _404
REMARK  170  A    between atoms: _404  and  _405
REMARK  171  A    between atoms: _404  and  _407
REMARK  172  A    between atoms: _407  and  _408
REMARK  173  A    between atoms: _411  and  _413
REMARK  174  A    between atoms: _413  and  _414
REMARK  175  A    between atoms: _416  and  _418
REMARK  176  A    between atoms: _418  and  _419
REMARK  177  A    between atoms: _421  and  _423
REMARK  178  A    between atoms: _423  and  _424
REMARK  179  A    between atoms: _423  and  _426
REMARK  180  A    between atoms: _426  and  _427
REMARK  181  A    between atoms: _430  and  _432
REMARK  182  A    between atoms: _432  and  _433
REMARK  183  A    between atoms: _435  and  _437
REMARK  184  A    between atoms: _437  and  _438
REMARK  185  A    between atoms: _440  and  _442
REMARK  186  A    between atoms: _442  and  _443
REMARK  187  A    between atoms: _442  and  _445
REMARK  188  A    between atoms: _445  and  _446
REMARK  189  A    between atoms: _452  and  _454
REMARK  190  A    between atoms: _454  and  _455
REMARK  191  A    between atoms: _454  and  _457
REMARK  192  A    between atoms: _457  and  _458
REMARK  193  A    between atoms: _461  and  _463
REMARK  194  A    between atoms: _463  and  _464
REMARK  195  A    between atoms: _463  and  _466
REMARK  196  A    between atoms: _469  and  _471
REMARK  197  A    between atoms: _471  and  _472
REMARK  198  A    between atoms: _471  and  _474
REMARK  199  A    between atoms: _474  and  _475
REMARK  200  A    between atoms: _479  and  _480
REMARK  201  A    between atoms: _485  and  _487
REMARK  202  A    between atoms: _487  and  _488
REMARK  203  A    between atoms: _487  and  _490
REMARK  204  A    between atoms: _490  and  _491
REMARK  205  A    between atoms: _495  and  _496
REMARK  206  A    between atoms: _501  and  _503
REMARK  207  A    between atoms: _503  and  _504
REMARK  208  A    between atoms: _503  and  _506
REMARK  209  A    between atoms: _509  and  _511
REMARK  210  A    between atoms: _511  and  _512
REMARK  211  A    between atoms: _511  and  _514
REMARK  212  A    between atoms: _514  and  _515
REMARK  213  A    between atoms: _520  and  _522
REMARK  214  A    between atoms: _522  and  _523
REMARK  215  A    between atoms: _522  and  _525
REMARK  216  A    between atoms: _525  and  _526
REMARK  217  A    between atoms: _529  and  _531
REMARK  218  A    between atoms: _531  and  _532
REMARK  219  A    between atoms: _531  and  _534
REMARK  220  A    between atoms: _534  and  _535
REMARK  221  A    between atoms: _538  and  _540
REMARK  222  A    between atoms: _540  and  _541
REMARK  223  A    between atoms: _543  and  _545
REMARK  224  A    between atoms: _545  and  _546
REMARK  225  A    between atoms: _545  and  _548
REMARK  226  A    between atoms: _548  and  _549
REMARK  227  A    between atoms: _549  and  _550
REMARK  228  A    between atoms: _550  and  _551
REMARK  229  A    between atoms: _560  and  _562
REMARK  230  A    between atoms: _562  and  _563
REMARK  231  A    between atoms: _562  and  _565
REMARK  232  A    between atoms: _565  and  _566
REMARK                            x       y       z     vdW  Elec       q    Type
REMARK                         _______ _______ _______ _____ _____    ______ ____
ROOT
ATOM      1  O   HOH     1      11.143   6.176  22.516  0.00  0.00    +0.000 OA
ENDROOT
TORSDOF 0
REMARK  Name = ../refined-set-2016/1kzk/1kzk_pocket.pdb
REMARK  232 active torsions:
REMARK  status: ('A' for Active; 'I' for Inactive)
REMARK    1  A    between atoms: _1  and  _3
REMARK    2  A    between atoms: _3  and  _4
REMARK    3  A    between atoms: _3  and  _6
REMARK    4  A    between atoms: _6  and  _7
REMARK    5  A    between atoms: _7  and  _8
REMARK    6  A    between atoms: _8  and  _9
REMARK    7  A    between atoms: _18  and  _20
REMARK    8  A    between atoms: _20  and  _21
REMARK    9  A    between atoms: _20  and  _23
REMARK   10  A    between atoms: _23  and  _24
REMARK   11  A    between atoms: _27  and  _29
REMARK   12  A    between atoms: _29  and  _30
REMARK   13  A    between atoms: _29  and  _32
REMARK   14  A    between atoms: _32  and  _33
REMARK   15  A    between atoms: _36  and  _38
REMARK   16  A    between atoms: _38  and  _39
REMARK   17  A    between atoms: _38  and  _41
REMARK   18  A    between atoms: _41  and  _42
REMARK   19  A    between atoms: _45  and  _47
REMARK   20  A    between atoms: _47  and  _48
REMARK   21  A    between atoms: _47  and  _50
REMARK   22  A    between atoms: _50  and  _51
REMARK   23  A    between atoms: _54  and  _56
REMARK   24  A    between atoms: _56  and  _57
REMARK   25  A    between atoms: _59  and  _61
REMARK   26  A    between atoms: _61  and  _62
REMARK   27  A    between atoms: _65  and  _67
REMARK   28  A    between atoms: _67  and  _68
REMARK   29  A    between atoms: _67  and  _70
REMARK   30  A    between atoms: _70  and  _71
REMARK   31  A    between atoms: _74  and  _76
REMARK   32  A    between atoms: _76  and  _77
REMARK   33  A    between atoms: _76  and  _79
REMARK   34  A    between atoms: _79  and  _80
REMARK   35  A    between atoms: _83  and  _85
REMARK   36  A    between atoms: _85  and  _86
REMARK   37  A    between atoms: _85  and  _88
REMARK   38  A    between atoms: _88  and  _89
REMARK   39  A    between atoms: _92  and  _94
REMARK   40  A    between atoms: _94  and  _95
REMARK   41  A    between atoms: _94  and  _97
REMARK   42  A    between atoms: _100  and  _102
REMARK   43  A    between atoms: _102  and  _103
REMARK   44  A    between atoms: _102  and  _105
REMARK   45  A    between atoms: _106  and  _107
REMARK   46  A    between atoms: _107  and  _108
REMARK   47  A    between atoms: _108  and  _109
REMARK   48  A    between atoms: _113  and  _115
REMARK   49  A    between atoms: _115  and  _116
REMARK   50  A    between atoms: _115  and  _118
REMARK   51  A    between atoms: _118  and  _119
REMARK   52  A    between atoms: _119  and  _120
REMARK   53  A    between atoms: _122  and  _124
REMARK   54  A    between atoms: _124  and  _125
REMARK   55  A    between atoms: _124  and  _127
REMARK   56  A    between atoms: _127  and  _128
REMARK   57  A    between atoms: _131  and  _133
REMARK   58  A    between atoms: _133  and  _134
REMARK   59  A    between atoms: _136  and  _138
REMARK   60  A    between atoms: _138  and  _139
REMARK   61  A    between atoms: _141  and  _143
REMARK   62  A    between atoms: _143  and  _144
REMARK   63  A    between atoms: _143  and  _146
REMARK   64  A    between atoms: _146  and  _147
REMARK   65  A    between atoms: _150  and  _152
REMARK   66  A    between atoms: _152  and  _153
REMARK   67  A    between atoms: _155  and  _157
REMARK   68  A    between atoms: _157  and  _158
REMARK   69  A    between atoms: _160  and  _162
REMARK   70  A    between atoms: _162  and  _163
REMARK   71  A    between atoms: _162  and  _165
REMARK   72  A    between atoms: _165  and  _166
REMARK   73  A    between atoms: _169  and  _171
REMARK   74  A    between atoms: _171  and  _172
REMARK   75  A    between atoms: _171  and  _174
REMARK   76  A    between atoms: _177  and  _179
REMARK   77  A    between atoms: _179  and  _180
REMARK   78  A    between atoms: _179  and  _182
REMARK   79  A    between atoms: _182  and  _183
REMARK   80  A    between atoms: _186  and  _188
REMARK   81  A    between atoms: _188  and  _189
REMARK   82  A    between atoms: _188  and  _191
REMARK   83  A    between atoms: _191  and  _192
REMARK   84  A    between atoms: _196  and  _197
REMARK   85  A    between atoms: _202  and  _204
REMARK   86  A    between atoms: _204  and  _205
REMARK   87  A    between atoms: _204  and  _207
REMARK   88  A    between atoms: _210  and  _212
REMARK   89  A    between atoms: _212  and  _213
REMARK   90  A    between atoms: _212  and  _215
REMARK   91  A    between atoms: _215  and  _216
REMARK   92  A    between atoms: _221  and  _223
REMARK   93  A    between atoms: _223  and  _224
REMARK   94  A    between atoms: _223  and  _226
REMARK   95  A    between atoms: _226  and  _227
REMARK   96  A    between atoms: _230  and  _232
REMARK   97  A    between atoms: _232  and  _233
REMARK   98  A    between atoms: _232  and  _235
REMARK   99  A    between atoms: _235  and  _236
REMARK  100  A    between atoms: _239  and  _241
REMARK  101  A    between atoms: _241  and  _242
REMARK  102  A    between atoms: _244  and  _246
REMARK  103  A    between atoms: _246  and  _247
REMARK  104  A    between atoms: _246  and  _249
REMARK  105  A    between atoms: _249  and  _250
REMARK  106  A    between atoms: _250  and  _251
REMARK  107  A    between atoms: _251  and  _252
REMARK  108  A    between atoms: _261  and  _263
REMARK  109  A    between atoms: _263  and  _264
REMARK  110  A    between atoms: _263  and  _266
REMARK  111  A    between atoms: _266  and  _267
REMARK  112  A    between atoms: _272  and  _274
REMARK  113  A    between atoms: _274  and  _275
REMARK  114  A    between atoms: _274  and  _277
REMARK  115  A    between atoms: _277  and  _278
REMARK  116  A    between atoms: _278  and  _279
REMARK  117  A    between atoms: _279  and  _280
REMARK  118  A    between atoms: _289  and  _291
REMARK  119  A    between atoms: _291  and  _292
REMARK  120  A    between atoms: _291  and  _294
REMARK  121  A    between atoms: _294  and  _295
REMARK  122  A    between atoms: _298  and  _300
REMARK  123  A    between atoms: _300  and  _301
REMARK  124  A    between atoms: _300  and  _303
REMARK  125  A    between atoms: _303  and  _304
REMARK  126  A    between atoms: _307  and  _309
REMARK  127  A    between atoms: _309  and  _310
REMARK  128  A    between atoms: _309  and  _312
REMARK  129  A    between atoms: _312  and  _313
REMARK  130  A    between atoms: _316  and  _318
REMARK  131  A    between atoms: _318  and  _319
REMARK  132  A    between atoms: _318  and  _321
REMARK  133  A    between atoms: _321  and  _322
REMARK  134  A    between atoms: _325  and  _327
REMARK  135  A    between atoms: _327  and  _328
REMARK  136  A    between atoms: _330  and  _332
REMARK  137  A    between atoms: _332  and  _333
REMARK  138  A    between atoms: _336  and  _338
REMARK  139  A    between atoms: _338  and  _339
REMARK  140  A    between atoms: _338  and  _341
REMARK  141  A    between atoms: _341  and  _342
REMARK  142  A    between atoms: _345  and  _347
REMARK  143  A    between atoms: _347  and  _348
REMARK  144  A    between atoms: _347  and  _350
REMARK  145  A    between atoms: _350  and  _351
REMARK  146  A    between atoms: _354  and  _356
REMARK  147  A    between atoms: _356  and  _357
REMARK  148  A    between atoms: _356  and  _359
REMARK  149  A    between atoms: _359  and  _360
REMARK  150  A    between atoms: _363  and  _365
REMARK  151  A    between atoms: _365  and  _366
REMARK  152  A    between atoms: _365  and  _368
REMARK  153  A    between atoms: _371  and  _373
REMARK  154  A    between atoms: _373  and  _374
REMARK  155  A    between atoms: _373  and  _376
REMARK  156  A    between atoms: _376  and  _377
REMARK  157  A    between atoms: _380  and  _382
REMARK  158  A    between atoms: _382  and  _383
REMARK  159  A    between atoms: _382  and  _385
REMARK  160  A    between atoms: _385  and  _386
REMARK  161  A    between atoms: _386  and  _387
REMARK  162  A    between atoms: _387  and  _388
REMARK  163  A    between atoms: _388  and  _389
REMARK  164  A    between atoms: _393  and  _395
REMARK  165  A    between atoms: _395  and  _396
REMARK  166  A    between atoms: _395  and  _398
REMARK  167  A    between atoms: _398  and  _399
REMARK  168  A    between atoms: _399  and  _400
REMARK  169  A    between atoms: _402  and  _404
REMARK  170  A    between atoms: _404  and  _405
REMARK  171  A    between atoms: _404  and  _407
REMARK  172  A    between atoms: _407  and  _408
REMARK  173  A    between atoms: _411  and  _413
REMARK  174  A    between atoms: _413  and  _414
REMARK  175  A    between atoms: _416  and  _418
REMARK  176  A    between atoms: _418  and  _419
REMARK  177  A    between atoms: _421  and  _423
REMARK  178  A    between atoms: _423  and  _424
REMARK  179  A    between atoms: _423  and  _426
REMARK  180  A    between atoms: _426  and  _427
REMARK  181  A    between atoms: _430  and  _432
REMARK  182  A    between atoms: _432  and  _433
REMARK  183  A    between atoms: _435  and  _437
REMARK  184  A    between atoms: _437  and  _438
REMARK  185  A    between atoms: _440  and  _442
REMARK  186  A    between atoms: _442  and  _443
REMARK  187  A    between atoms: _442  and  _445
REMARK  188  A    between atoms: _445  and  _446
REMARK  189  A    between atoms: _452  and  _454
REMARK  190  A    between atoms: _454  and  _455
REMARK  191  A    between atoms: _454  and  _457
REMARK  192  A    between atoms: _457  and  _458
REMARK  193  A    between atoms: _461  and  _463
REMARK  194  A    between atoms: _463  and  _464
REMARK  195  A    between atoms: _463  and  _466
REMARK  196  A    between atoms: _469  and  _471
REMARK  197  A    between atoms: _471  and  _472
REMARK  198  A    between atoms: _471  and  _474
REMARK  199  A    between atoms: _474  and  _475
REMARK  200  A    between atoms: _479  and  _480
REMARK  201  A    between atoms: _485  and  _487
REMARK  202  A    between atoms: _487  and  _488
REMARK  203  A    between atoms: _487  and  _490
REMARK  204  A    between atoms: _490  and  _491
REMARK  205  A    between atoms: _495  and  _496
REMARK  206  A    between atoms: _501  and  _503
REMARK  207  A    between atoms: _503  and  _504
REMARK  208  A    between atoms: _503  and  _506
REMARK  209  A    between atoms: _509  and  _511
REMARK  210  A    between atoms: _511  and  _512
REMARK  211  A    between atoms: _511  and  _514
REMARK  212  A    between atoms: _514  and  _515
REMARK  213  A    between atoms: _520  and  _522
REMARK  214  A    between atoms: _522  and  _523
REMARK  215  A    between atoms: _522  and  _525
REMARK  216  A    between atoms: _525  and  _526
REMARK  217  A    between atoms: _529  and  _531
REMARK  218  A    between atoms: _531  and  _532
REMARK  219  A    between atoms: _531  and  _534
REMARK  220  A    between atoms: _534  and  _535
REMARK  221  A    between atoms: _538  and  _540
REMARK  222  A    between atoms: _540  and  _541
REMARK  223  A    between atoms: _543  and  _545
REMARK  224  A    between atoms: _545  and  _546
REMARK  225  A    between atoms: _545  and  _548
REMARK  226  A    between atoms: _548  and  _549
REMARK  227  A    between atoms: _549  and  _550
REMARK  228  A    between atoms: _550  and  _551
REMARK  229  A    between atoms: _560  and  _562
REMARK  230  A    between atoms: _562  and  _563
REMARK  231  A    between atoms: _562  and  _565
REMARK  232  A    between atoms: _565  and  _566
REMARK                            x       y       z     vdW  Elec       q    Type
REMARK                         _______ _______ _______ _____ _____    ______ ____
ROOT
ATOM      1  O   HOH     1      17.043   4.583  23.396  0.00  0.00    +0.000 OA
ENDROOT
TORSDOF 0
REMARK  Name = ../refined-set-2016/1kzk/1kzk_pocket.pdb
REMARK  232 active torsions:
REMARK  status: ('A' for Active; 'I' for Inactive)
REMARK    1  A    between atoms: _1  and  _3
REMARK    2  A    between atoms: _3  and  _4
REMARK    3  A    between atoms: _3  and  _6
REMARK    4  A    between atoms: _6  and  _7
REMARK    5  A    between atoms: _7  and  _8
REMARK    6  A    between atoms: _8  and  _9
REMARK    7  A    between atoms: _18  and  _20
REMARK    8  A    between atoms: _20  and  _21
REMARK    9  A    between atoms: _20  and  _23
REMARK   10  A    between atoms: _23  and  _24
REMARK   11  A    between atoms: _27  and  _29
REMARK   12  A    between atoms: _29  and  _30
REMARK   13  A    between atoms: _29  and  _32
REMARK   14  A    between atoms: _32  and  _33
REMARK   15  A    between atoms: _36  and  _38
REMARK   16  A    between atoms: _38  and  _39
REMARK   17  A    between atoms: _38  and  _41
REMARK   18  A    between atoms: _41  and  _42
REMARK   19  A    between atoms: _45  and  _47
REMARK   20  A    between atoms: _47  and  _48
REMARK   21  A    between atoms: _47  and  _50
REMARK   22  A    between atoms: _50  and  _51
REMARK   23  A    between atoms: _54  and  _56
REMARK   24  A    between atoms: _56  and  _57
REMARK   25  A    between atoms: _59  and  _61
REMARK   26  A    between atoms: _61  and  _62
REMARK   27  A    between atoms: _65  and  _67
REMARK   28  A    between atoms: _67  and  _68
REMARK   29  A    between atoms: _67  and  _70
REMARK   30  A    between atoms: _70  and  _71
REMARK   31  A    between atoms: _74  and  _76
REMARK   32  A    between atoms: _76  and  _77
REMARK   33  A    between atoms: _76  and  _79
REMARK   34  A    between atoms: _79  and  _80
REMARK   35  A    between atoms: _83  and  _85
REMARK   36  A    between atoms: _85  and  _86
REMARK   37  A    between atoms: _85  and  _88
REMARK   38  A    between atoms: _88  and  _89
REMARK   39  A    between atoms: _92  and  _94
REMARK   40  A    between atoms: _94  and  _95
REMARK   41  A    between atoms: _94  and  _97
REMARK   42  A    between atoms: _100  and  _102
REMARK   43  A    between atoms: _102  and  _103
REMARK   44  A    between atoms: _102  and  _105
REMARK   45  A    between atoms: _106  and  _107
REMARK   46  A    between atoms: _107  and  _108
REMARK   47  A    between atoms: _108  and  _109
REMARK   48  A    between atoms: _113  and  _115
REMARK   49  A    between atoms: _115  and  _116
REMARK   50  A    between atoms: _115  and  _118
REMARK   51  A    between atoms: _118  and  _119
REMARK   52  A    between atoms: _119  and  _120
REMARK   53  A    between atoms: _122  and  _124
REMARK   54  A    between atoms: _124  and  _125
REMARK   55  A    between atoms: _124  and  _127
REMARK   56  A    between atoms: _127  and  _128
REMARK   57  A    between atoms: _131  and  _133
REMARK   58  A    between atoms: _133  and  _134
REMARK   59  A    between atoms: _136  and  _138
REMARK   60  A    between atoms: _138  and  _139
REMARK   61  A    between atoms: _141  and  _143
REMARK   62  A    between atoms: _143  and  _144
REMARK   63  A    between atoms: _143  and  _146
REMARK   64  A    between atoms: _146  and  _147
REMARK   65  A    between atoms: _150  and  _152
REMARK   66  A    between atoms: _152  and  _153
REMARK   67  A    between atoms: _155  and  _157
REMARK   68  A    between atoms: _157  and  _158
REMARK   69  A    between atoms: _160  and  _162
REMARK   70  A    between atoms: _162  and  _163
REMARK   71  A    between atoms: _162  and  _165
REMARK   72  A    between atoms: _165  and  _166
REMARK   73  A    between atoms: _169  and  _171
REMARK   74  A    between atoms: _171  and  _172
REMARK   75  A    between atoms: _171  and  _174
REMARK   76  A    between atoms: _177  and  _179
REMARK   77  A    between atoms: _179  and  _180
REMARK   78  A    between atoms: _179  and  _182
REMARK   79  A    between atoms: _182  and  _183
REMARK   80  A    between atoms: _186  and  _188
REMARK   81  A    between atoms: _188  and  _189
REMARK   82  A    between atoms: _188  and  _191
REMARK   83  A    between atoms: _191  and  _192
REMARK   84  A    between atoms: _196  and  _197
REMARK   85  A    between atoms: _202  and  _204
REMARK   86  A    between atoms: _204  and  _205
REMARK   87  A    between atoms: _204  and  _207
REMARK   88  A    between atoms: _210  and  _212
REMARK   89  A    between atoms: _212  and  _213
REMARK   90  A    between atoms: _212  and  _215
REMARK   91  A    between atoms: _215  and  _216
REMARK   92  A    between atoms: _221  and  _223
REMARK   93  A    between atoms: _223  and  _224
REMARK   94  A    between atoms: _223  and  _226
REMARK   95  A    between atoms: _226  and  _227
REMARK   96  A    between atoms: _230  and  _232
REMARK   97  A    between atoms: _232  and  _233
REMARK   98  A    between atoms: _232  and  _235
REMARK   99  A    between atoms: _235  and  _236
REMARK  100  A    between atoms: _239  and  _241
REMARK  101  A    between atoms: _241  and  _242
REMARK  102  A    between atoms: _244  and  _246
REMARK  103  A    between atoms: _246  and  _247
REMARK  104  A    between atoms: _246  and  _249
REMARK  105  A    between atoms: _249  and  _250
REMARK  106  A    between atoms: _250  and  _251
REMARK  107  A    between atoms: _251  and  _252
REMARK  108  A    between atoms: _261  and  _263
REMARK  109  A    between atoms: _263  and  _264
REMARK  110  A    between atoms: _263  and  _266
REMARK  111  A    between atoms: _266  and  _267
REMARK  112  A    between atoms: _272  and  _274
REMARK  113  A    between atoms: _274  and  _275
REMARK  114  A    between atoms: _274  and  _277
REMARK  115  A    between atoms: _277  and  _278
REMARK  116  A    between atoms: _278  and  _279
REMARK  117  A    between atoms: _279  and  _280
REMARK  118  A    between atoms: _289  and  _291
REMARK  119  A    between atoms: _291  and  _292
REMARK  120  A    between atoms: _291  and  _294
REMARK  121  A    between atoms: _294  and  _295
REMARK  122  A    between atoms: _298  and  _300
REMARK  123  A    between atoms: _300  and  _301
REMARK  124  A    between atoms: _300  and  _303
REMARK  125  A    between atoms: _303  and  _304
REMARK  126  A    between atoms: _307  and  _309
REMARK  127  A    between atoms: _309  and  _310
REMARK  128  A    between atoms: _309  and  _312
REMARK  129  A    between atoms: _312  and  _313
REMARK  130  A    between atoms: _316  and  _318
REMARK  131  A    between atoms: _318  and  _319
REMARK  132  A    between atoms: _318  and  _321
REMARK  133  A    between atoms: _321  and  _322
REMARK  134  A    between atoms: _325  and  _327
REMARK  135  A    between atoms: _327  and  _328
REMARK  136  A    between atoms: _330  and  _332
REMARK  137  A    between atoms: _332  and  _333
REMARK  138  A    between atoms: _336  and  _338
REMARK  139  A    between atoms: _338  and  _339
REMARK  140  A    between atoms: _338  and  _341
REMARK  141  A    between atoms: _341  and  _342
REMARK  142  A    between atoms: _345  and  _347
REMARK  143  A    between atoms: _347  and  _348
REMARK  144  A    between atoms: _347  and  _350
REMARK  145  A    between atoms: _350  and  _351
REMARK  146  A    between atoms: _354  and  _356
REMARK  147  A    between atoms: _356  and  _357
REMARK  148  A    between atoms: _356  and  _359
REMARK  149  A    between atoms: _359  and  _360
REMARK  150  A    between atoms: _363  and  _365
REMARK  151  A    between atoms: _365  and  _366
REMARK  152  A    between atoms: _365  and  _368
REMARK  153  A    between atoms: _371  and  _373
REMARK  154  A    between atoms: _373  and  _374
REMARK  155  A    between atoms: _373  and  _376
REMARK  156  A    between atoms: _376  and  _377
REMARK  157  A    between atoms: _380  and  _382
REMARK  158  A    between atoms: _382  and  _383
REMARK  159  A    between atoms: _382  and  _385
REMARK  160  A    between atoms: _385  and  _386
REMARK  161  A    between atoms: _386  and  _387
REMARK  162  A    between atoms: _387  and  _388
REMARK  163  A    between atoms: _388  and  _389
REMARK  164  A    between atoms: _393  and  _395
REMARK  165  A    between atoms: _395  and  _396
REMARK  166  A    between atoms: _395  and  _398
REMARK  167  A    between atoms: _398  and  _399
REMARK  168  A    between atoms: _399  and  _400
REMARK  169  A    between atoms: _402  and  _404
REMARK  170  A    between atoms: _404  and  _405
REMARK  171  A    between atoms: _404  and  _407
REMARK  172  A    between atoms: _407  and  _408
REMARK  173  A    between atoms: _411  and  _413
REMARK  174  A    between atoms: _413  and  _414
REMARK  175  A    between atoms: _416  and  _418
REMARK  176  A    between atoms: _418  and  _419
REMARK  177  A    between atoms: _421  and  _423
REMARK  178  A    between atoms: _423  and  _424
REMARK  179  A    between atoms: _423  and  _426
REMARK  180  A    between atoms: _426  and  _427
REMARK  181  A    between atoms: _430  and  _432
REMARK  182  A    between atoms: _432  and  _433
REMARK  183  A    between atoms: _435  and  _437
REMARK  184  A    between atoms: _437  and  _438
REMARK  185  A    between atoms: _440  and  _442
REMARK  186  A    between atoms: _442  and  _443
REMARK  187  A    between atoms: _442  and  _445
REMARK  188  A    between atoms: _445  and  _446
REMARK  189  A    between atoms: _452  and  _454
REMARK  190  A    between atoms: _454  and  _455
REMARK  191  A    between atoms: _454  and  _457
REMARK  192  A    between atoms: _457  and  _458
REMARK  193  A    between atoms: _461  and  _463
REMARK  194  A    between atoms: _463  and  _464
REMARK  195  A    between atoms: _463  and  _466
REMARK  196  A    between atoms: _469  and  _471
REMARK  197  A    between atoms: _471  and  _472
REMARK  198  A    between atoms: _471  and  _474
REMARK  199  A    between atoms: _474  and  _475
REMARK  200  A    between atoms: _479  and  _480
REMARK  201  A    between atoms: _485  and  _487
REMARK  202  A    between atoms: _487  and  _488
REMARK  203  A    between atoms: _487  and  _490
REMARK  204  A    between atoms: _490  and  _491
REMARK  205  A    between atoms: _495  and  _496
REMARK  206  A    between atoms: _501  and  _503
REMARK  207  A    between atoms: _503  and  _504
REMARK  208  A    between atoms: _503  and  _506
REMARK  209  A    between atoms: _509  and  _511
REMARK  210  A    between atoms: _511  and  _512
REMARK  211  A    between atoms: _511  and  _514
REMARK  212  A    between atoms: _514  and  _515
REMARK  213  A    between atoms: _520  and  _522
REMARK  214  A    between atoms: _522  and  _523
REMARK  215  A    between atoms: _522  and  _525
REMARK  216  A    between atoms: _525  and  _526
REMARK  217  A    between atoms: _529  and  _531
REMARK  218  A    between atoms: _531  and  _532
REMARK  219  A    between atoms: _531  and  _534
REMARK  220  A    between atoms: _534  and  _535
REMARK  221  A    between atoms: _538  and  _540
REMARK  222  A    between atoms: _540  and  _541
REMARK  223  A    between atoms: _543  and  _545
REMARK  224  A    between atoms: _545  and  _546
REMARK  225  A    between atoms: _545  and  _548
REMARK  226  A    between atoms: _548  and  _549
REMARK  227  A    between atoms: _549  and  _550
REMARK  228  A    between atoms: _550  and  _551
REMARK  229  A    between atoms: _560  and  _562
REMARK  230  A    between atoms: _562  and  _563
REMARK  231  A    between atoms: _562  and  _565
REMARK  232  A    between atoms: _565  and  _566
REMARK                            x       y       z     vdW  Elec       q    Type
REMARK                         _______ _______ _______ _____ _____    ______ ____
ROOT
ATOM      1  O   HOH     1      20.642  -3.925   7.882  0.00  0.00    +0.000 OA
ENDROOT
TORSDOF 0
