REMARK  Name = ../refined-set-2016/4q8x/4q8x_pocket.pdb
REMARK  140 active torsions:
REMARK  status: ('A' for Active; 'I' for Inactive)
REMARK    1  A    between atoms: _1  and  _3
REMARK    2  A    between atoms: _3  and  _4
REMARK    3  A    between atoms: _3  and  _6
REMARK    4  A    between atoms: _6  and  _7
REMARK    5  A    between atoms: _17  and  _19
REMARK    6  A    between atoms: _19  and  _20
REMARK    7  A    between atoms: _19  and  _22
REMARK    8  A    between atoms: _22  and  _23
REMARK    9  A    between atoms: _28  and  _29
REMARK   10  A    between atoms: _31  and  _33
REMARK   11  A    between atoms: _33  and  _34
REMARK   12  A    between atoms: _33  and  _36
REMARK   13  A    between atoms: _36  and  _37
REMARK   14  A    between atoms: _47  and  _49
REMARK   15  A    between atoms: _49  and  _50
REMARK   16  A    between atoms: _49  and  _52
REMARK   17  A    between atoms: _52  and  _53
REMARK   18  A    between atoms: _55  and  _57
REMARK   19  A    between atoms: _57  and  _58
REMARK   20  A    between atoms: _57  and  _60
REMARK   21  A    between atoms: _60  and  _61
REMARK   22  A    between atoms: _66  and  _68
REMARK   23  A    between atoms: _68  and  _69
REMARK   24  A    between atoms: _68  and  _71
REMARK   25  A    between atoms: _71  and  _72
REMARK   26  A    between atoms: _77  and  _79
REMARK   27  A    between atoms: _79  and  _80
REMARK   28  A    between atoms: _79  and  _82
REMARK   29  A    between atoms: _82  and  _83
REMARK   30  A    between atoms: _86  and  _88
REMARK   31  A    between atoms: _88  and  _89
REMARK   32  A    between atoms: _88  and  _91
REMARK   33  A    between atoms: _91  and  _92
REMARK   34  A    between atoms: _92  and  _93
REMARK   35  A    between atoms: _98  and  _100
REMARK   36  A    between atoms: _100  and  _101
REMARK   37  A    between atoms: _100  and  _103
REMARK   38  A    between atoms: _103  and  _104
REMARK   39  A    between atoms: _110  and  _112
REMARK   40  A    between atoms: _112  and  _113
REMARK   41  A    between atoms: _112  and  _115
REMARK   42  A    between atoms: _115  and  _116
REMARK   43  A    between atoms: _120  and  ZN_369
REMARK   44  A    between atoms: _121  and  _123
REMARK   45  A    between atoms: _123  and  _124
REMARK   46  A    between atoms: _123  and  _126
REMARK   47  A    between atoms: _126  and  _127
REMARK   48  A    between atoms: _131  and  ZN_369
REMARK   49  A    between atoms: _132  and  _134
REMARK   50  A    between atoms: _134  and  _135
REMARK   51  A    between atoms: _134  and  _137
REMARK   52  A    between atoms: _137  and  _138
REMARK   53  A    between atoms: _138  and  _139
REMARK   54  A    between atoms: _142  and  _144
REMARK   55  A    between atoms: _144  and  _145
REMARK   56  A    between atoms: _144  and  _147
REMARK   57  A    between atoms: _147  and  _148
REMARK   58  A    between atoms: _153  and  _155
REMARK   59  A    between atoms: _155  and  _156
REMARK   60  A    between atoms: _155  and  _158
REMARK   61  A    between atoms: _158  and  _159
REMARK   62  A    between atoms: _159  and  _160
REMARK   63  A    between atoms: _163  and  _165
REMARK   64  A    between atoms: _165  and  _166
REMARK   65  A    between atoms: _165  and  _168
REMARK   66  A    between atoms: _168  and  _169
REMARK   67  A    between atoms: _170  and  ZN_369
REMARK   68  A    between atoms: _174  and  _176
REMARK   69  A    between atoms: _176  and  _177
REMARK   70  A    between atoms: _176  and  _179
REMARK   71  A    between atoms: _179  and  _180
REMARK   72  A    between atoms: _183  and  _185
REMARK   73  A    between atoms: _185  and  _186
REMARK   74  A    between atoms: _185  and  _188
REMARK   75  A    between atoms: _191  and  _193
REMARK   76  A    between atoms: _193  and  _194
REMARK   77  A    between atoms: _193  and  _196
REMARK   78  A    between atoms: _196  and  _197
REMARK   79  A    between atoms: _202  and  _204
REMARK   80  A    between atoms: _204  and  _205
REMARK   81  A    between atoms: _204  and  _207
REMARK   82  A    between atoms: _207  and  _208
REMARK   83  A    between atoms: _214  and  _216
REMARK   84  A    between atoms: _216  and  _217
REMARK   85  A    between atoms: _216  and  _219
REMARK   86  A    between atoms: _222  and  _224
REMARK   87  A    between atoms: _224  and  _225
REMARK   88  A    between atoms: _224  and  _227
REMARK   89  A    between atoms: _227  and  _228
REMARK   90  A    between atoms: _231  and  _233
REMARK   91  A    between atoms: _233  and  _234
REMARK   92  A    between atoms: _237  and  _239
REMARK   93  A    between atoms: _239  and  _240
REMARK   94  A    between atoms: _239  and  _242
REMARK   95  A    between atoms: _245  and  _247
REMARK   96  A    between atoms: _247  and  _248
REMARK   97  A    between atoms: _247  and  _250
REMARK   98  A    between atoms: _250  and  _251
REMARK   99  A    between atoms: _254  and  _256
REMARK  100  A    between atoms: _256  and  _257
REMARK  101  A    between atoms: _256  and  _259
REMARK  102  A    between atoms: _259  and  _260
REMARK  103  A    between atoms: _262  and  _264
REMARK  104  A    between atoms: _264  and  _265
REMARK  105  A    between atoms: _264  and  _267
REMARK  106  A    between atoms: _267  and  _268
REMARK  107  A    between atoms: _271  and  _273
REMARK  108  A    between atoms: _273  and  _274
REMARK  109  A    between atoms: _273  and  _276
REMARK  110  A    between atoms: _276  and  _277
REMARK  111  A    between atoms: _280  and  _282
REMARK  112  A    between atoms: _282  and  _283
REMARK  113  A    between atoms: _282  and  _285
REMARK  114  A    between atoms: _285  and  _286
REMARK  115  A    between atoms: _290  and  _291
REMARK  116  A    between atoms: _297  and  _298
REMARK  117  A    between atoms: _303  and  _305
REMARK  118  A    between atoms: _305  and  _306
REMARK  119  A    between atoms: _305  and  _308
REMARK  120  A    between atoms: _308  and  _309
REMARK  121  A    between atoms: _312  and  _314
REMARK  122  A    between atoms: _314  and  _315
REMARK  123  A    between atoms: _314  and  _317
REMARK  124  A    between atoms: _317  and  _318
REMARK  125  A    between atoms: _321  and  _323
REMARK  126  A    between atoms: _323  and  _324
REMARK  127  A    between atoms: _323  and  _326
REMARK  128  A    between atoms: _328  and  _330
REMARK  129  A    between atoms: _330  and  _331
REMARK  130  A    between atoms: _330  and  _333
REMARK  131  A    between atoms: _336  and  _338
REMARK  132  A    between atoms: _338  and  _339
REMARK  133  A    between atoms: _338  and  _341
REMARK  134  A    between atoms: _341  and  _342
REMARK  135  A    between atoms: _352  and  _354
REMARK  136  A    between atoms: _354  and  _355
REMARK  137  A    between atoms: _354  and  _357
REMARK  138  A    between atoms: _357  and  _358
REMARK  139  A    between atoms: _358  and  _359
REMARK  140  A    between atoms: _359  and  _360
REMARK                            x       y       z     vdW  Elec       q    Type
REMARK                         _______ _______ _______ _____ _____    ______ ____
ROOT
ATOM      1  CG  TRP A   1      26.848  -0.223  12.003  0.00  0.00    -0.002 A 
ATOM      2  CD2 TRP A   1      25.473  -0.684  11.966  0.00  0.00    +0.013 A 
ATOM      3  CE3 TRP A   1      24.861  -1.917  12.147  0.00  0.00    +0.001 A 
ATOM      4  CZ3 TRP A   1      23.403  -1.986  11.976  0.00  0.00    +0.000 A 
ATOM      5  CH2 TRP A   1      22.670  -0.861  11.628  0.00  0.00    +0.001 A 
ATOM      6  CZ2 TRP A   1      23.271   0.332  11.419  0.00  0.00    +0.017 A 
ATOM      7  CE2 TRP A   1      24.676   0.434  11.598  0.00  0.00    +0.056 A 
ATOM      8  NE1 TRP A   1      25.510   1.519  11.422  0.00  0.00    -0.352 N 
ATOM      9  HE1 TRP A   1      25.207   2.469  11.127  0.00  0.00    +0.166 HD
ATOM     10  CD1 TRP A   1      26.799   1.148  11.697  0.00  0.00    +0.068 A 
ENDROOT
BRANCH   1  11
ATOM     11  CB  TRP A   1      28.035  -1.037  12.377  0.00  0.00    +0.053 C 
BRANCH  11  12
ATOM     12  CA  TRP A   1      28.671  -1.733  11.171  0.00  0.00    +0.137 C 
BRANCH  12  13
ATOM     13  N   TRP A   1      29.411  -0.735  10.398  0.00  0.00    -0.239 NA
ATOM     14  H   TRP A   1      29.271   0.281  10.569  0.00  0.00    +0.142 HD
ENDBRANCH  12  13
BRANCH  12  15
ATOM     15  C   TRP A   1      27.666  -2.531  10.371  0.00  0.00    +0.224 C 
ATOM     16  O   TRP A   1      27.044  -2.055   9.352  0.00  0.00    -0.287 OA
ENDBRANCH  12  15
ENDBRANCH  11  12
ENDBRANCH   1  11
TORSDOF 4
REMARK  Name = ../refined-set-2016/4q8x/4q8x_pocket.pdb
REMARK  140 active torsions:
REMARK  status: ('A' for Active; 'I' for Inactive)
REMARK    1  A    between atoms: _1  and  _3
REMARK    2  A    between atoms: _3  and  _4
REMARK    3  A    between atoms: _3  and  _6
REMARK    4  A    between atoms: _6  and  _7
REMARK    5  A    between atoms: _17  and  _19
REMARK    6  A    between atoms: _19  and  _20
REMARK    7  A    between atoms: _19  and  _22
REMARK    8  A    between atoms: _22  and  _23
REMARK    9  A    between atoms: _28  and  _29
REMARK   10  A    between atoms: _31  and  _33
REMARK   11  A    between atoms: _33  and  _34
REMARK   12  A    between atoms: _33  and  _36
REMARK   13  A    between atoms: _36  and  _37
REMARK   14  A    between atoms: _47  and  _49
REMARK   15  A    between atoms: _49  and  _50
REMARK   16  A    between atoms: _49  and  _52
REMARK   17  A    between atoms: _52  and  _53
REMARK   18  A    between atoms: _55  and  _57
REMARK   19  A    between atoms: _57  and  _58
REMARK   20  A    between atoms: _57  and  _60
REMARK   21  A    between atoms: _60  and  _61
REMARK   22  A    between atoms: _66  and  _68
REMARK   23  A    between atoms: _68  and  _69
REMARK   24  A    between atoms: _68  and  _71
REMARK   25  A    between atoms: _71  and  _72
REMARK   26  A    between atoms: _77  and  _79
REMARK   27  A    between atoms: _79  and  _80
REMARK   28  A    between atoms: _79  and  _82
REMARK   29  A    between atoms: _82  and  _83
REMARK   30  A    between atoms: _86  and  _88
REMARK   31  A    between atoms: _88  and  _89
REMARK   32  A    between atoms: _88  and  _91
REMARK   33  A    between atoms: _91  and  _92
REMARK   34  A    between atoms: _92  and  _93
REMARK   35  A    between atoms: _98  and  _100
REMARK   36  A    between atoms: _100  and  _101
REMARK   37  A    between atoms: _100  and  _103
REMARK   38  A    between atoms: _103  and  _104
REMARK   39  A    between atoms: _110  and  _112
REMARK   40  A    between atoms: _112  and  _113
REMARK   41  A    between atoms: _112  and  _115
REMARK   42  A    between atoms: _115  and  _116
REMARK   43  A    between atoms: _120  and  ZN_369
REMARK   44  A    between atoms: _121  and  _123
REMARK   45  A    between atoms: _123  and  _124
REMARK   46  A    between atoms: _123  and  _126
REMARK   47  A    between atoms: _126  and  _127
REMARK   48  A    between atoms: _131  and  ZN_369
REMARK   49  A    between atoms: _132  and  _134
REMARK   50  A    between atoms: _134  and  _135
REMARK   51  A    between atoms: _134  and  _137
REMARK   52  A    between atoms: _137  and  _138
REMARK   53  A    between atoms: _138  and  _139
REMARK   54  A    between atoms: _142  and  _144
REMARK   55  A    between atoms: _144  and  _145
REMARK   56  A    between atoms: _144  and  _147
REMARK   57  A    between atoms: _147  and  _148
REMARK   58  A    between atoms: _153  and  _155
REMARK   59  A    between atoms: _155  and  _156
REMARK   60  A    between atoms: _155  and  _158
REMARK   61  A    between atoms: _158  and  _159
REMARK   62  A    between atoms: _159  and  _160
REMARK   63  A    between atoms: _163  and  _165
REMARK   64  A    between atoms: _165  and  _166
REMARK   65  A    between atoms: _165  and  _168
REMARK   66  A    between atoms: _168  and  _169
REMARK   67  A    between atoms: _170  and  ZN_369
REMARK   68  A    between atoms: _174  and  _176
REMARK   69  A    between atoms: _176  and  _177
REMARK   70  A    between atoms: _176  and  _179
REMARK   71  A    between atoms: _179  and  _180
REMARK   72  A    between atoms: _183  and  _185
REMARK   73  A    between atoms: _185  and  _186
REMARK   74  A    between atoms: _185  and  _188
REMARK   75  A    between atoms: _191  and  _193
REMARK   76  A    between atoms: _193  and  _194
REMARK   77  A    between atoms: _193  and  _196
REMARK   78  A    between atoms: _196  and  _197
REMARK   79  A    between atoms: _202  and  _204
REMARK   80  A    between atoms: _204  and  _205
REMARK   81  A    between atoms: _204  and  _207
REMARK   82  A    between atoms: _207  and  _208
REMARK   83  A    between atoms: _214  and  _216
REMARK   84  A    between atoms: _216  and  _217
REMARK   85  A    between atoms: _216  and  _219
REMARK   86  A    between atoms: _222  and  _224
REMARK   87  A    between atoms: _224  and  _225
REMARK   88  A    between atoms: _224  and  _227
REMARK   89  A    between atoms: _227  and  _228
REMARK   90  A    between atoms: _231  and  _233
REMARK   91  A    between atoms: _233  and  _234
REMARK   92  A    between atoms: _237  and  _239
REMARK   93  A    between atoms: _239  and  _240
REMARK   94  A    between atoms: _239  and  _242
REMARK   95  A    between atoms: _245  and  _247
REMARK   96  A    between atoms: _247  and  _248
REMARK   97  A    between atoms: _247  and  _250
REMARK   98  A    between atoms: _250  and  _251
REMARK   99  A    between atoms: _254  and  _256
REMARK  100  A    between atoms: _256  and  _257
REMARK  101  A    between atoms: _256  and  _259
REMARK  102  A    between atoms: _259  and  _260
REMARK  103  A    between atoms: _262  and  _264
REMARK  104  A    between atoms: _264  and  _265
REMARK  105  A    between atoms: _264  and  _267
REMARK  106  A    between atoms: _267  and  _268
REMARK  107  A    between atoms: _271  and  _273
REMARK  108  A    between atoms: _273  and  _274
REMARK  109  A    between atoms: _273  and  _276
REMARK  110  A    between atoms: _276  and  _277
REMARK  111  A    between atoms: _280  and  _282
REMARK  112  A    between atoms: _282  and  _283
REMARK  113  A    between atoms: _282  and  _285
REMARK  114  A    between atoms: _285  and  _286
REMARK  115  A    between atoms: _290  and  _291
REMARK  116  A    between atoms: _297  and  _298
REMARK  117  A    between atoms: _303  and  _305
REMARK  118  A    between atoms: _305  and  _306
REMARK  119  A    between atoms: _305  and  _308
REMARK  120  A    between atoms: _308  and  _309
REMARK  121  A    between atoms: _312  and  _314
REMARK  122  A    between atoms: _314  and  _315
REMARK  123  A    between atoms: _314  and  _317
REMARK  124  A    between atoms: _317  and  _318
REMARK  125  A    between atoms: _321  and  _323
REMARK  126  A    between atoms: _323  and  _324
REMARK  127  A    between atoms: _323  and  _326
REMARK  128  A    between atoms: _328  and  _330
REMARK  129  A    between atoms: _330  and  _331
REMARK  130  A    between atoms: _330  and  _333
REMARK  131  A    between atoms: _336  and  _338
REMARK  132  A    between atoms: _338  and  _339
REMARK  133  A    between atoms: _338  and  _341
REMARK  134  A    between atoms: _341  and  _342
REMARK  135  A    between atoms: _352  and  _354
REMARK  136  A    between atoms: _354  and  _355
REMARK  137  A    between atoms: _354  and  _357
REMARK  138  A    between atoms: _357  and  _358
REMARK  139  A    between atoms: _358  and  _359
REMARK  140  A    between atoms: _359  and  _360
REMARK                            x       y       z     vdW  Elec       q    Type
REMARK                         _______ _______ _______ _____ _____    ______ ____
ROOT
ATOM      1  CG  TYR A   1      23.021  -7.316  11.813  0.00  0.00    -0.020 A 
ATOM      2  CD2 TYR A   1      22.632  -7.330  13.160  0.00  0.00    -0.001 A 
ATOM      3  CE2 TYR A   1      21.793  -6.318  13.620  0.00  0.00    +0.036 A 
ATOM      4  CZ  TYR A   1      21.320  -5.353  12.772  0.00  0.00    +0.134 A 
ATOM      5  CE1 TYR A   1      21.695  -5.308  11.413  0.00  0.00    +0.036 A 
ATOM      6  CD1 TYR A   1      22.511  -6.325  10.975  0.00  0.00    -0.001 A 
ENDROOT
BRANCH   4   7
ATOM      7  OH  TYR A   1      20.507  -4.376  13.116  0.00  0.00    -0.506 OA
ATOM      8  HH  TYR A   1      20.280  -4.460  14.076  0.00  0.00    +0.292 HD
ENDBRANCH   4   7
BRANCH   1   9
ATOM      9  CB  TYR A   1      23.942  -8.429  11.286  0.00  0.00    +0.051 C 
BRANCH   9  10
ATOM     10  CA  TYR A   1      25.436  -8.059  11.488  0.00  0.00    +0.137 C 
BRANCH  10  11
ATOM     11  N   TYR A   1      25.787  -6.913  10.687  0.00  0.00    -0.239 NA
ATOM     12  H   TYR A   1      25.820  -6.997   9.651  0.00  0.00    +0.142 HD
ENDBRANCH  10  11
BRANCH  10  13
ATOM     13  C   TYR A   1      26.309  -9.259  11.249  0.00  0.00    +0.224 C 
ATOM     14  O   TYR A   1      25.930 -10.362  11.666  0.00  0.00    -0.287 OA
ENDBRANCH  10  13
ENDBRANCH   9  10
ENDBRANCH   1   9
TORSDOF 5
REMARK  Name = ../refined-set-2016/4q8x/4q8x_pocket.pdb
REMARK  140 active torsions:
REMARK  status: ('A' for Active; 'I' for Inactive)
REMARK    1  A    between atoms: _1  and  _3
REMARK    2  A    between atoms: _3  and  _4
REMARK    3  A    between atoms: _3  and  _6
REMARK    4  A    between atoms: _6  and  _7
REMARK    5  A    between atoms: _17  and  _19
REMARK    6  A    between atoms: _19  and  _20
REMARK    7  A    between atoms: _19  and  _22
REMARK    8  A    between atoms: _22  and  _23
REMARK    9  A    between atoms: _28  and  _29
REMARK   10  A    between atoms: _31  and  _33
REMARK   11  A    between atoms: _33  and  _34
REMARK   12  A    between atoms: _33  and  _36
REMARK   13  A    between atoms: _36  and  _37
REMARK   14  A    between atoms: _47  and  _49
REMARK   15  A    between atoms: _49  and  _50
REMARK   16  A    between atoms: _49  and  _52
REMARK   17  A    between atoms: _52  and  _53
REMARK   18  A    between atoms: _55  and  _57
REMARK   19  A    between atoms: _57  and  _58
REMARK   20  A    between atoms: _57  and  _60
REMARK   21  A    between atoms: _60  and  _61
REMARK   22  A    between atoms: _66  and  _68
REMARK   23  A    between atoms: _68  and  _69
REMARK   24  A    between atoms: _68  and  _71
REMARK   25  A    between atoms: _71  and  _72
REMARK   26  A    between atoms: _77  and  _79
REMARK   27  A    between atoms: _79  and  _80
REMARK   28  A    between atoms: _79  and  _82
REMARK   29  A    between atoms: _82  and  _83
REMARK   30  A    between atoms: _86  and  _88
REMARK   31  A    between atoms: _88  and  _89
REMARK   32  A    between atoms: _88  and  _91
REMARK   33  A    between atoms: _91  and  _92
REMARK   34  A    between atoms: _92  and  _93
REMARK   35  A    between atoms: _98  and  _100
REMARK   36  A    between atoms: _100  and  _101
REMARK   37  A    between atoms: _100  and  _103
REMARK   38  A    between atoms: _103  and  _104
REMARK   39  A    between atoms: _110  and  _112
REMARK   40  A    between atoms: _112  and  _113
REMARK   41  A    between atoms: _112  and  _115
REMARK   42  A    between atoms: _115  and  _116
REMARK   43  A    between atoms: _120  and  ZN_369
REMARK   44  A    between atoms: _121  and  _123
REMARK   45  A    between atoms: _123  and  _124
REMARK   46  A    between atoms: _123  and  _126
REMARK   47  A    between atoms: _126  and  _127
REMARK   48  A    between atoms: _131  and  ZN_369
REMARK   49  A    between atoms: _132  and  _134
REMARK   50  A    between atoms: _134  and  _135
REMARK   51  A    between atoms: _134  and  _137
REMARK   52  A    between atoms: _137  and  _138
REMARK   53  A    between atoms: _138  and  _139
REMARK   54  A    between atoms: _142  and  _144
REMARK   55  A    between atoms: _144  and  _145
REMARK   56  A    between atoms: _144  and  _147
REMARK   57  A    between atoms: _147  and  _148
REMARK   58  A    between atoms: _153  and  _155
REMARK   59  A    between atoms: _155  and  _156
REMARK   60  A    between atoms: _155  and  _158
REMARK   61  A    between atoms: _158  and  _159
REMARK   62  A    between atoms: _159  and  _160
REMARK   63  A    between atoms: _163  and  _165
REMARK   64  A    between atoms: _165  and  _166
REMARK   65  A    between atoms: _165  and  _168
REMARK   66  A    between atoms: _168  and  _169
REMARK   67  A    between atoms: _170  and  ZN_369
REMARK   68  A    between atoms: _174  and  _176
REMARK   69  A    between atoms: _176  and  _177
REMARK   70  A    between atoms: _176  and  _179
REMARK   71  A    between atoms: _179  and  _180
REMARK   72  A    between atoms: _183  and  _185
REMARK   73  A    between atoms: _185  and  _186
REMARK   74  A    between atoms: _185  and  _188
REMARK   75  A    between atoms: _191  and  _193
REMARK   76  A    between atoms: _193  and  _194
REMARK   77  A    between atoms: _193  and  _196
REMARK   78  A    between atoms: _196  and  _197
REMARK   79  A    between atoms: _202  and  _204
REMARK   80  A    between atoms: _204  and  _205
REMARK   81  A    between atoms: _204  and  _207
REMARK   82  A    between atoms: _207  and  _208
REMARK   83  A    between atoms: _214  and  _216
REMARK   84  A    between atoms: _216  and  _217
REMARK   85  A    between atoms: _216  and  _219
REMARK   86  A    between atoms: _222  and  _224
REMARK   87  A    between atoms: _224  and  _225
REMARK   88  A    between atoms: _224  and  _227
REMARK   89  A    between atoms: _227  and  _228
REMARK   90  A    between atoms: _231  and  _233
REMARK   91  A    between atoms: _233  and  _234
REMARK   92  A    between atoms: _237  and  _239
REMARK   93  A    between atoms: _239  and  _240
REMARK   94  A    between atoms: _239  and  _242
REMARK   95  A    between atoms: _245  and  _247
REMARK   96  A    between atoms: _247  and  _248
REMARK   97  A    between atoms: _247  and  _250
REMARK   98  A    between atoms: _250  and  _251
REMARK   99  A    between atoms: _254  and  _256
REMARK  100  A    between atoms: _256  and  _257
REMARK  101  A    between atoms: _256  and  _259
REMARK  102  A    between atoms: _259  and  _260
REMARK  103  A    between atoms: _262  and  _264
REMARK  104  A    between atoms: _264  and  _265
REMARK  105  A    between atoms: _264  and  _267
REMARK  106  A    between atoms: _267  and  _268
REMARK  107  A    between atoms: _271  and  _273
REMARK  108  A    between atoms: _273  and  _274
REMARK  109  A    between atoms: _273  and  _276
REMARK  110  A    between atoms: _276  and  _277
REMARK  111  A    between atoms: _280  and  _282
REMARK  112  A    between atoms: _282  and  _283
REMARK  113  A    between atoms: _282  and  _285
REMARK  114  A    between atoms: _285  and  _286
REMARK  115  A    between atoms: _290  and  _291
REMARK  116  A    between atoms: _297  and  _298
REMARK  117  A    between atoms: _303  and  _305
REMARK  118  A    between atoms: _305  and  _306
REMARK  119  A    between atoms: _305  and  _308
REMARK  120  A    between atoms: _308  and  _309
REMARK  121  A    between atoms: _312  and  _314
REMARK  122  A    between atoms: _314  and  _315
REMARK  123  A    between atoms: _314  and  _317
REMARK  124  A    between atoms: _317  and  _318
REMARK  125  A    between atoms: _321  and  _323
REMARK  126  A    between atoms: _323  and  _324
REMARK  127  A    between atoms: _323  and  _326
REMARK  128  A    between atoms: _328  and  _330
REMARK  129  A    between atoms: _330  and  _331
REMARK  130  A    between atoms: _330  and  _333
REMARK  131  A    between atoms: _336  and  _338
REMARK  132  A    between atoms: _338  and  _339
REMARK  133  A    between atoms: _338  and  _341
REMARK  134  A    between atoms: _341  and  _342
REMARK  135  A    between atoms: _352  and  _354
REMARK  136  A    between atoms: _354  and  _355
REMARK  137  A    between atoms: _354  and  _357
REMARK  138  A    between atoms: _357  and  _358
REMARK  139  A    between atoms: _358  and  _359
REMARK  140  A    between atoms: _359  and  _360
REMARK                            x       y       z     vdW  Elec       q    Type
REMARK                         _______ _______ _______ _____ _____    ______ ____
ROOT
ATOM      1  CG  TRP A   1      27.411  -2.728  16.744  0.00  0.00    -0.002 A 
ATOM      2  CD2 TRP A   1      26.022  -3.092  16.693  0.00  0.00    +0.013 A 
ATOM      3  CE3 TRP A   1      24.911  -2.886  17.561  0.00  0.00    +0.001 A 
ATOM      4  CZ3 TRP A   1      23.691  -3.368  17.159  0.00  0.00    +0.000 A 
ATOM      5  CH2 TRP A   1      23.478  -3.997  15.903  0.00  0.00    +0.001 A 
ATOM      6  CZ2 TRP A   1      24.548  -4.227  15.033  0.00  0.00    +0.017 A 
ATOM      7  CE2 TRP A   1      25.814  -3.739  15.440  0.00  0.00    +0.056 A 
ATOM      8  NE1 TRP A   1      27.024  -3.797  14.775  0.00  0.00    -0.352 N 
ATOM      9  HE1 TRP A   1      27.188  -4.219  13.839  0.00  0.00    +0.166 HD
ATOM     10  CD1 TRP A   1      27.974  -3.197  15.571  0.00  0.00    +0.068 A 
ENDROOT
BRANCH   1  11
ATOM     11  CB  TRP A   1      28.128  -1.957  17.858  0.00  0.00    +0.053 C 
BRANCH  11  12
ATOM     12  CA  TRP A   1      29.676  -1.998  17.734  0.00  0.00    +0.137 C 
BRANCH  12  13
ATOM     13  N   TRP A   1      30.154  -3.356  17.889  0.00  0.00    -0.239 NA
ATOM     14  H   TRP A   1      29.498  -4.129  18.120  0.00  0.00    +0.142 HD
ENDBRANCH  12  13
BRANCH  12  15
ATOM     15  C   TRP A   1      30.260  -0.985  18.735  0.00  0.00    +0.224 C 
ATOM     16  O   TRP A   1      30.333   0.217  18.453  0.00  0.00    -0.287 OA
ENDBRANCH  12  15
ENDBRANCH  11  12
ENDBRANCH   1  11
TORSDOF 4
REMARK  Name = ../refined-set-2016/4q8x/4q8x_pocket.pdb
REMARK  140 active torsions:
REMARK  status: ('A' for Active; 'I' for Inactive)
REMARK    1  A    between atoms: _1  and  _3
REMARK    2  A    between atoms: _3  and  _4
REMARK    3  A    between atoms: _3  and  _6
REMARK    4  A    between atoms: _6  and  _7
REMARK    5  A    between atoms: _17  and  _19
REMARK    6  A    between atoms: _19  and  _20
REMARK    7  A    between atoms: _19  and  _22
REMARK    8  A    between atoms: _22  and  _23
REMARK    9  A    between atoms: _28  and  _29
REMARK   10  A    between atoms: _31  and  _33
REMARK   11  A    between atoms: _33  and  _34
REMARK   12  A    between atoms: _33  and  _36
REMARK   13  A    between atoms: _36  and  _37
REMARK   14  A    between atoms: _47  and  _49
REMARK   15  A    between atoms: _49  and  _50
REMARK   16  A    between atoms: _49  and  _52
REMARK   17  A    between atoms: _52  and  _53
REMARK   18  A    between atoms: _55  and  _57
REMARK   19  A    between atoms: _57  and  _58
REMARK   20  A    between atoms: _57  and  _60
REMARK   21  A    between atoms: _60  and  _61
REMARK   22  A    between atoms: _66  and  _68
REMARK   23  A    between atoms: _68  and  _69
REMARK   24  A    between atoms: _68  and  _71
REMARK   25  A    between atoms: _71  and  _72
REMARK   26  A    between atoms: _77  and  _79
REMARK   27  A    between atoms: _79  and  _80
REMARK   28  A    between atoms: _79  and  _82
REMARK   29  A    between atoms: _82  and  _83
REMARK   30  A    between atoms: _86  and  _88
REMARK   31  A    between atoms: _88  and  _89
REMARK   32  A    between atoms: _88  and  _91
REMARK   33  A    between atoms: _91  and  _92
REMARK   34  A    between atoms: _92  and  _93
REMARK   35  A    between atoms: _98  and  _100
REMARK   36  A    between atoms: _100  and  _101
REMARK   37  A    between atoms: _100  and  _103
REMARK   38  A    between atoms: _103  and  _104
REMARK   39  A    between atoms: _110  and  _112
REMARK   40  A    between atoms: _112  and  _113
REMARK   41  A    between atoms: _112  and  _115
REMARK   42  A    between atoms: _115  and  _116
REMARK   43  A    between atoms: _120  and  ZN_369
REMARK   44  A    between atoms: _121  and  _123
REMARK   45  A    between atoms: _123  and  _124
REMARK   46  A    between atoms: _123  and  _126
REMARK   47  A    between atoms: _126  and  _127
REMARK   48  A    between atoms: _131  and  ZN_369
REMARK   49  A    between atoms: _132  and  _134
REMARK   50  A    between atoms: _134  and  _135
REMARK   51  A    between atoms: _134  and  _137
REMARK   52  A    between atoms: _137  and  _138
REMARK   53  A    between atoms: _138  and  _139
REMARK   54  A    between atoms: _142  and  _144
REMARK   55  A    between atoms: _144  and  _145
REMARK   56  A    between atoms: _144  and  _147
REMARK   57  A    between atoms: _147  and  _148
REMARK   58  A    between atoms: _153  and  _155
REMARK   59  A    between atoms: _155  and  _156
REMARK   60  A    between atoms: _155  and  _158
REMARK   61  A    between atoms: _158  and  _159
REMARK   62  A    between atoms: _159  and  _160
REMARK   63  A    between atoms: _163  and  _165
REMARK   64  A    between atoms: _165  and  _166
REMARK   65  A    between atoms: _165  and  _168
REMARK   66  A    between atoms: _168  and  _169
REMARK   67  A    between atoms: _170  and  ZN_369
REMARK   68  A    between atoms: _174  and  _176
REMARK   69  A    between atoms: _176  and  _177
REMARK   70  A    between atoms: _176  and  _179
REMARK   71  A    between atoms: _179  and  _180
REMARK   72  A    between atoms: _183  and  _185
REMARK   73  A    between atoms: _185  and  _186
REMARK   74  A    between atoms: _185  and  _188
REMARK   75  A    between atoms: _191  and  _193
REMARK   76  A    between atoms: _193  and  _194
REMARK   77  A    between atoms: _193  and  _196
REMARK   78  A    between atoms: _196  and  _197
REMARK   79  A    between atoms: _202  and  _204
REMARK   80  A    between atoms: _204  and  _205
REMARK   81  A    between atoms: _204  and  _207
REMARK   82  A    between atoms: _207  and  _208
REMARK   83  A    between atoms: _214  and  _216
REMARK   84  A    between atoms: _216  and  _217
REMARK   85  A    between atoms: _216  and  _219
REMARK   86  A    between atoms: _222  and  _224
REMARK   87  A    between atoms: _224  and  _225
REMARK   88  A    between atoms: _224  and  _227
REMARK   89  A    between atoms: _227  and  _228
REMARK   90  A    between atoms: _231  and  _233
REMARK   91  A    between atoms: _233  and  _234
REMARK   92  A    between atoms: _237  and  _239
REMARK   93  A    between atoms: _239  and  _240
REMARK   94  A    between atoms: _239  and  _242
REMARK   95  A    between atoms: _245  and  _247
REMARK   96  A    between atoms: _247  and  _248
REMARK   97  A    between atoms: _247  and  _250
REMARK   98  A    between atoms: _250  and  _251
REMARK   99  A    between atoms: _254  and  _256
REMARK  100  A    between atoms: _256  and  _257
REMARK  101  A    between atoms: _256  and  _259
REMARK  102  A    between atoms: _259  and  _260
REMARK  103  A    between atoms: _262  and  _264
REMARK  104  A    between atoms: _264  and  _265
REMARK  105  A    between atoms: _264  and  _267
REMARK  106  A    between atoms: _267  and  _268
REMARK  107  A    between atoms: _271  and  _273
REMARK  108  A    between atoms: _273  and  _274
REMARK  109  A    between atoms: _273  and  _276
REMARK  110  A    between atoms: _276  and  _277
REMARK  111  A    between atoms: _280  and  _282
REMARK  112  A    between atoms: _282  and  _283
REMARK  113  A    between atoms: _282  and  _285
REMARK  114  A    between atoms: _285  and  _286
REMARK  115  A    between atoms: _290  and  _291
REMARK  116  A    between atoms: _297  and  _298
REMARK  117  A    between atoms: _303  and  _305
REMARK  118  A    between atoms: _305  and  _306
REMARK  119  A    between atoms: _305  and  _308
REMARK  120  A    between atoms: _308  and  _309
REMARK  121  A    between atoms: _312  and  _314
REMARK  122  A    between atoms: _314  and  _315
REMARK  123  A    between atoms: _314  and  _317
REMARK  124  A    between atoms: _317  and  _318
REMARK  125  A    between atoms: _321  and  _323
REMARK  126  A    between atoms: _323  and  _324
REMARK  127  A    between atoms: _323  and  _326
REMARK  128  A    between atoms: _328  and  _330
REMARK  129  A    between atoms: _330  and  _331
REMARK  130  A    between atoms: _330  and  _333
REMARK  131  A    between atoms: _336  and  _338
REMARK  132  A    between atoms: _338  and  _339
REMARK  133  A    between atoms: _338  and  _341
REMARK  134  A    between atoms: _341  and  _342
REMARK  135  A    between atoms: _352  and  _354
REMARK  136  A    between atoms: _354  and  _355
REMARK  137  A    between atoms: _354  and  _357
REMARK  138  A    between atoms: _357  and  _358
REMARK  139  A    between atoms: _358  and  _359
REMARK  140  A    between atoms: _359  and  _360
REMARK                            x       y       z     vdW  Elec       q    Type
REMARK                         _______ _______ _______ _____ _____    ______ ____
ROOT
ATOM      1  CA  SER A   1      18.179  -2.399  24.209  0.00  0.00    +0.163 C 
ENDROOT
BRANCH   1   2
ATOM      2  N   SER A   1      19.232  -1.499  24.689  0.00  0.00    -0.237 NA
ATOM      3  H   SER A   1      19.724  -0.894  24.001  0.00  0.00    +0.142 HD
ENDBRANCH   1   2
BRANCH   1   4
ATOM      4  C   SER A   1      18.670  -3.289  23.095  0.00  0.00    +0.227 C 
ATOM      5  O   SER A   1      19.622  -2.946  22.417  0.00  0.00    -0.287 OA
ENDBRANCH   1   4
BRANCH   1   6
ATOM      6  CB  SER A   1      17.024  -1.588  23.668  0.00  0.00    +0.162 C 
BRANCH   6   7
ATOM      7  OG  SER A   1      16.406  -0.890  24.780  0.00  0.00    -0.380 OA
ATOM      8  H   SER A   1      16.080  -1.550  25.442  0.00  0.00    +0.211 HD
ENDBRANCH   6   7
ENDBRANCH   1   6
TORSDOF 4
REMARK  Name = ../refined-set-2016/4q8x/4q8x_pocket.pdb
REMARK  140 active torsions:
REMARK  status: ('A' for Active; 'I' for Inactive)
REMARK    1  A    between atoms: _1  and  _3
REMARK    2  A    between atoms: _3  and  _4
REMARK    3  A    between atoms: _3  and  _6
REMARK    4  A    between atoms: _6  and  _7
REMARK    5  A    between atoms: _17  and  _19
REMARK    6  A    between atoms: _19  and  _20
REMARK    7  A    between atoms: _19  and  _22
REMARK    8  A    between atoms: _22  and  _23
REMARK    9  A    between atoms: _28  and  _29
REMARK   10  A    between atoms: _31  and  _33
REMARK   11  A    between atoms: _33  and  _34
REMARK   12  A    between atoms: _33  and  _36
REMARK   13  A    between atoms: _36  and  _37
REMARK   14  A    between atoms: _47  and  _49
REMARK   15  A    between atoms: _49  and  _50
REMARK   16  A    between atoms: _49  and  _52
REMARK   17  A    between atoms: _52  and  _53
REMARK   18  A    between atoms: _55  and  _57
REMARK   19  A    between atoms: _57  and  _58
REMARK   20  A    between atoms: _57  and  _60
REMARK   21  A    between atoms: _60  and  _61
REMARK   22  A    between atoms: _66  and  _68
REMARK   23  A    between atoms: _68  and  _69
REMARK   24  A    between atoms: _68  and  _71
REMARK   25  A    between atoms: _71  and  _72
REMARK   26  A    between atoms: _77  and  _79
REMARK   27  A    between atoms: _79  and  _80
REMARK   28  A    between atoms: _79  and  _82
REMARK   29  A    between atoms: _82  and  _83
REMARK   30  A    between atoms: _86  and  _88
REMARK   31  A    between atoms: _88  and  _89
REMARK   32  A    between atoms: _88  and  _91
REMARK   33  A    between atoms: _91  and  _92
REMARK   34  A    between atoms: _92  and  _93
REMARK   35  A    between atoms: _98  and  _100
REMARK   36  A    between atoms: _100  and  _101
REMARK   37  A    between atoms: _100  and  _103
REMARK   38  A    between atoms: _103  and  _104
REMARK   39  A    between atoms: _110  and  _112
REMARK   40  A    between atoms: _112  and  _113
REMARK   41  A    between atoms: _112  and  _115
REMARK   42  A    between atoms: _115  and  _116
REMARK   43  A    between atoms: _120  and  ZN_369
REMARK   44  A    between atoms: _121  and  _123
REMARK   45  A    between atoms: _123  and  _124
REMARK   46  A    between atoms: _123  and  _126
REMARK   47  A    between atoms: _126  and  _127
REMARK   48  A    between atoms: _131  and  ZN_369
REMARK   49  A    between atoms: _132  and  _134
REMARK   50  A    between atoms: _134  and  _135
REMARK   51  A    between atoms: _134  and  _137
REMARK   52  A    between atoms: _137  and  _138
REMARK   53  A    between atoms: _138  and  _139
REMARK   54  A    between atoms: _142  and  _144
REMARK   55  A    between atoms: _144  and  _145
REMARK   56  A    between atoms: _144  and  _147
REMARK   57  A    between atoms: _147  and  _148
REMARK   58  A    between atoms: _153  and  _155
REMARK   59  A    between atoms: _155  and  _156
REMARK   60  A    between atoms: _155  and  _158
REMARK   61  A    between atoms: _158  and  _159
REMARK   62  A    between atoms: _159  and  _160
REMARK   63  A    between atoms: _163  and  _165
REMARK   64  A    between atoms: _165  and  _166
REMARK   65  A    between atoms: _165  and  _168
REMARK   66  A    between atoms: _168  and  _169
REMARK   67  A    between atoms: _170  and  ZN_369
REMARK   68  A    between atoms: _174  and  _176
REMARK   69  A    between atoms: _176  and  _177
REMARK   70  A    between atoms: _176  and  _179
REMARK   71  A    between atoms: _179  and  _180
REMARK   72  A    between atoms: _183  and  _185
REMARK   73  A    between atoms: _185  and  _186
REMARK   74  A    between atoms: _185  and  _188
REMARK   75  A    between atoms: _191  and  _193
REMARK   76  A    between atoms: _193  and  _194
REMARK   77  A    between atoms: _193  and  _196
REMARK   78  A    between atoms: _196  and  _197
REMARK   79  A    between atoms: _202  and  _204
REMARK   80  A    between atoms: _204  and  _205
REMARK   81  A    between atoms: _204  and  _207
REMARK   82  A    between atoms: _207  and  _208
REMARK   83  A    between atoms: _214  and  _216
REMARK   84  A    between atoms: _216  and  _217
REMARK   85  A    between atoms: _216  and  _219
REMARK   86  A    between atoms: _222  and  _224
REMARK   87  A    between atoms: _224  and  _225
REMARK   88  A    between atoms: _224  and  _227
REMARK   89  A    between atoms: _227  and  _228
REMARK   90  A    between atoms: _231  and  _233
REMARK   91  A    between atoms: _233  and  _234
REMARK   92  A    between atoms: _237  and  _239
REMARK   93  A    between atoms: _239  and  _240
REMARK   94  A    between atoms: _239  and  _242
REMARK   95  A    between atoms: _245  and  _247
REMARK   96  A    between atoms: _247  and  _248
REMARK   97  A    between atoms: _247  and  _250
REMARK   98  A    between atoms: _250  and  _251
REMARK   99  A    between atoms: _254  and  _256
REMARK  100  A    between atoms: _256  and  _257
REMARK  101  A    between atoms: _256  and  _259
REMARK  102  A    between atoms: _259  and  _260
REMARK  103  A    between atoms: _262  and  _264
REMARK  104  A    between atoms: _264  and  _265
REMARK  105  A    between atoms: _264  and  _267
REMARK  106  A    between atoms: _267  and  _268
REMARK  107  A    between atoms: _271  and  _273
REMARK  108  A    between atoms: _273  and  _274
REMARK  109  A    between atoms: _273  and  _276
REMARK  110  A    between atoms: _276  and  _277
REMARK  111  A    between atoms: _280  and  _282
REMARK  112  A    between atoms: _282  and  _283
REMARK  113  A    between atoms: _282  and  _285
REMARK  114  A    between atoms: _285  and  _286
REMARK  115  A    between atoms: _290  and  _291
REMARK  116  A    between atoms: _297  and  _298
REMARK  117  A    between atoms: _303  and  _305
REMARK  118  A    between atoms: _305  and  _306
REMARK  119  A    between atoms: _305  and  _308
REMARK  120  A    between atoms: _308  and  _309
REMARK  121  A    between atoms: _312  and  _314
REMARK  122  A    between atoms: _314  and  _315
REMARK  123  A    between atoms: _314  and  _317
REMARK  124  A    between atoms: _317  and  _318
REMARK  125  A    between atoms: _321  and  _323
REMARK  126  A    between atoms: _323  and  _324
REMARK  127  A    between atoms: _323  and  _326
REMARK  128  A    between atoms: _328  and  _330
REMARK  129  A    between atoms: _330  and  _331
REMARK  130  A    between atoms: _330  and  _333
REMARK  131  A    between atoms: _336  and  _338
REMARK  132  A    between atoms: _338  and  _339
REMARK  133  A    between atoms: _338  and  _341
REMARK  134  A    between atoms: _341  and  _342
REMARK  135  A    between atoms: _352  and  _354
REMARK  136  A    between atoms: _354  and  _355
REMARK  137  A    between atoms: _354  and  _357
REMARK  138  A    between atoms: _357  and  _358
REMARK  139  A    between atoms: _358  and  _359
REMARK  140  A    between atoms: _359  and  _360
REMARK                            x       y       z     vdW  Elec       q    Type
REMARK                         _______ _______ _______ _____ _____    ______ ____
ROOT
ATOM      1  CB  ASN A   1      18.411   1.863   5.330  0.00  0.00    +0.110 C 
ENDROOT
BRANCH   1   2
ATOM      2  CG  ASN A   1      18.027   0.987   6.512  0.00  0.00    +0.221 C 
ATOM      3  ND2 ASN A   1      17.183   1.477   7.383  0.00  0.00    -0.329 N 
ATOM      4 HD21 ASN A   1      16.828   0.879   8.156  0.00  0.00    +0.145 HD
ATOM      5 HD22 ASN A   1      16.867   2.465   7.302  0.00  0.00    +0.145 HD
ATOM      6  OD1 ASN A   1      18.436  -0.161   6.550  0.00  0.00    -0.275 OA
ENDBRANCH   1   2
BRANCH   1   7
ATOM      7  CA  ASN A   1      18.822   1.006   4.110  0.00  0.00    +0.142 C 
BRANCH   7   8
ATOM      8  N   ASN A   1      17.710   0.114   3.645  0.00  0.00    -0.239 NA
ATOM      9  H   ASN A   1      17.188  -0.474   4.326  0.00  0.00    +0.142 HD
ENDBRANCH   7   8
BRANCH   7  10
ATOM     10  C   ASN A   1      20.083   0.212   4.370  0.00  0.00    +0.225 C 
ATOM     11  O   ASN A   1      21.065   0.741   4.967  0.00  0.00    -0.287 OA
ENDBRANCH   7  10
ENDBRANCH   1   7
TORSDOF 4
REMARK  Name = ../refined-set-2016/4q8x/4q8x_pocket.pdb
REMARK  140 active torsions:
REMARK  status: ('A' for Active; 'I' for Inactive)
REMARK    1  A    between atoms: _1  and  _3
REMARK    2  A    between atoms: _3  and  _4
REMARK    3  A    between atoms: _3  and  _6
REMARK    4  A    between atoms: _6  and  _7
REMARK    5  A    between atoms: _17  and  _19
REMARK    6  A    between atoms: _19  and  _20
REMARK    7  A    between atoms: _19  and  _22
REMARK    8  A    between atoms: _22  and  _23
REMARK    9  A    between atoms: _28  and  _29
REMARK   10  A    between atoms: _31  and  _33
REMARK   11  A    between atoms: _33  and  _34
REMARK   12  A    between atoms: _33  and  _36
REMARK   13  A    between atoms: _36  and  _37
REMARK   14  A    between atoms: _47  and  _49
REMARK   15  A    between atoms: _49  and  _50
REMARK   16  A    between atoms: _49  and  _52
REMARK   17  A    between atoms: _52  and  _53
REMARK   18  A    between atoms: _55  and  _57
REMARK   19  A    between atoms: _57  and  _58
REMARK   20  A    between atoms: _57  and  _60
REMARK   21  A    between atoms: _60  and  _61
REMARK   22  A    between atoms: _66  and  _68
REMARK   23  A    between atoms: _68  and  _69
REMARK   24  A    between atoms: _68  and  _71
REMARK   25  A    between atoms: _71  and  _72
REMARK   26  A    between atoms: _77  and  _79
REMARK   27  A    between atoms: _79  and  _80
REMARK   28  A    between atoms: _79  and  _82
REMARK   29  A    between atoms: _82  and  _83
REMARK   30  A    between atoms: _86  and  _88
REMARK   31  A    between atoms: _88  and  _89
REMARK   32  A    between atoms: _88  and  _91
REMARK   33  A    between atoms: _91  and  _92
REMARK   34  A    between atoms: _92  and  _93
REMARK   35  A    between atoms: _98  and  _100
REMARK   36  A    between atoms: _100  and  _101
REMARK   37  A    between atoms: _100  and  _103
REMARK   38  A    between atoms: _103  and  _104
REMARK   39  A    between atoms: _110  and  _112
REMARK   40  A    between atoms: _112  and  _113
REMARK   41  A    between atoms: _112  and  _115
REMARK   42  A    between atoms: _115  and  _116
REMARK   43  A    between atoms: _120  and  ZN_369
REMARK   44  A    between atoms: _121  and  _123
REMARK   45  A    between atoms: _123  and  _124
REMARK   46  A    between atoms: _123  and  _126
REMARK   47  A    between atoms: _126  and  _127
REMARK   48  A    between atoms: _131  and  ZN_369
REMARK   49  A    between atoms: _132  and  _134
REMARK   50  A    between atoms: _134  and  _135
REMARK   51  A    between atoms: _134  and  _137
REMARK   52  A    between atoms: _137  and  _138
REMARK   53  A    between atoms: _138  and  _139
REMARK   54  A    between atoms: _142  and  _144
REMARK   55  A    between atoms: _144  and  _145
REMARK   56  A    between atoms: _144  and  _147
REMARK   57  A    between atoms: _147  and  _148
REMARK   58  A    between atoms: _153  and  _155
REMARK   59  A    between atoms: _155  and  _156
REMARK   60  A    between atoms: _155  and  _158
REMARK   61  A    between atoms: _158  and  _159
REMARK   62  A    between atoms: _159  and  _160
REMARK   63  A    between atoms: _163  and  _165
REMARK   64  A    between atoms: _165  and  _166
REMARK   65  A    between atoms: _165  and  _168
REMARK   66  A    between atoms: _168  and  _169
REMARK   67  A    between atoms: _170  and  ZN_369
REMARK   68  A    between atoms: _174  and  _176
REMARK   69  A    between atoms: _176  and  _177
REMARK   70  A    between atoms: _176  and  _179
REMARK   71  A    between atoms: _179  and  _180
REMARK   72  A    between atoms: _183  and  _185
REMARK   73  A    between atoms: _185  and  _186
REMARK   74  A    between atoms: _185  and  _188
REMARK   75  A    between atoms: _191  and  _193
REMARK   76  A    between atoms: _193  and  _194
REMARK   77  A    between atoms: _193  and  _196
REMARK   78  A    between atoms: _196  and  _197
REMARK   79  A    between atoms: _202  and  _204
REMARK   80  A    between atoms: _204  and  _205
REMARK   81  A    between atoms: _204  and  _207
REMARK   82  A    between atoms: _207  and  _208
REMARK   83  A    between atoms: _214  and  _216
REMARK   84  A    between atoms: _216  and  _217
REMARK   85  A    between atoms: _216  and  _219
REMARK   86  A    between atoms: _222  and  _224
REMARK   87  A    between atoms: _224  and  _225
REMARK   88  A    between atoms: _224  and  _227
REMARK   89  A    between atoms: _227  and  _228
REMARK   90  A    between atoms: _231  and  _233
REMARK   91  A    between atoms: _233  and  _234
REMARK   92  A    between atoms: _237  and  _239
REMARK   93  A    between atoms: _239  and  _240
REMARK   94  A    between atoms: _239  and  _242
REMARK   95  A    between atoms: _245  and  _247
REMARK   96  A    between atoms: _247  and  _248
REMARK   97  A    between atoms: _247  and  _250
REMARK   98  A    between atoms: _250  and  _251
REMARK   99  A    between atoms: _254  and  _256
REMARK  100  A    between atoms: _256  and  _257
REMARK  101  A    between atoms: _256  and  _259
REMARK  102  A    between atoms: _259  and  _260
REMARK  103  A    between atoms: _262  and  _264
REMARK  104  A    between atoms: _264  and  _265
REMARK  105  A    between atoms: _264  and  _267
REMARK  106  A    between atoms: _267  and  _268
REMARK  107  A    between atoms: _271  and  _273
REMARK  108  A    between atoms: _273  and  _274
REMARK  109  A    between atoms: _273  and  _276
REMARK  110  A    between atoms: _276  and  _277
REMARK  111  A    between atoms: _280  and  _282
REMARK  112  A    between atoms: _282  and  _283
REMARK  113  A    between atoms: _282  and  _285
REMARK  114  A    between atoms: _285  and  _286
REMARK  115  A    between atoms: _290  and  _291
REMARK  116  A    between atoms: _297  and  _298
REMARK  117  A    between atoms: _303  and  _305
REMARK  118  A    between atoms: _305  and  _306
REMARK  119  A    between atoms: _305  and  _308
REMARK  120  A    between atoms: _308  and  _309
REMARK  121  A    between atoms: _312  and  _314
REMARK  122  A    between atoms: _314  and  _315
REMARK  123  A    between atoms: _314  and  _317
REMARK  124  A    between atoms: _317  and  _318
REMARK  125  A    between atoms: _321  and  _323
REMARK  126  A    between atoms: _323  and  _324
REMARK  127  A    between atoms: _323  and  _326
REMARK  128  A    between atoms: _328  and  _330
REMARK  129  A    between atoms: _330  and  _331
REMARK  130  A    between atoms: _330  and  _333
REMARK  131  A    between atoms: _336  and  _338
REMARK  132  A    between atoms: _338  and  _339
REMARK  133  A    between atoms: _338  and  _341
REMARK  134  A    between atoms: _341  and  _342
REMARK  135  A    between atoms: _352  and  _354
REMARK  136  A    between atoms: _354  and  _355
REMARK  137  A    between atoms: _354  and  _357
REMARK  138  A    between atoms: _357  and  _358
REMARK  139  A    between atoms: _358  and  _359
REMARK  140  A    between atoms: _359  and  _360
REMARK                            x       y       z     vdW  Elec       q    Type
REMARK                         _______ _______ _______ _____ _____    ______ ____
ROOT
ATOM      1  CB  ASN A   1      12.620   2.562   6.945  0.00  0.00    +0.110 C 
ENDROOT
BRANCH   1   2
ATOM      2  CG  ASN A   1      13.647   2.342   7.982  0.00  0.00    +0.221 C 
ATOM      3  OD1 ASN A   1      13.739   1.266   8.558  0.00  0.00    -0.275 OA
ATOM      4  ND2 ASN A   1      14.504   3.351   8.198  0.00  0.00    -0.329 N 
ATOM      5 HD21 ASN A   1      15.283   3.235   8.877  0.00  0.00    +0.145 HD
ATOM      6 HD22 ASN A   1      14.389   4.249   7.687  0.00  0.00    +0.145 HD
ENDBRANCH   1   2
BRANCH   1   7
ATOM      7  CA  ASN A   1      11.860   1.245   6.549  0.00  0.00    +0.142 C 
BRANCH   7   8
ATOM      8  N   ASN A   1      12.704   0.308   5.823  0.00  0.00    -0.239 NA
ATOM      9  H   ASN A   1      13.252   0.644   5.006  0.00  0.00    +0.142 HD
ENDBRANCH   7   8
BRANCH   7  10
ATOM     10  C   ASN A   1      10.674   1.633   5.700  0.00  0.00    +0.225 C 
ATOM     11  O   ASN A   1      10.839   2.086   4.593  0.00  0.00    -0.287 OA
ENDBRANCH   7  10
ENDBRANCH   1   7
TORSDOF 4
REMARK  Name = ../refined-set-2016/4q8x/4q8x_pocket.pdb
REMARK  140 active torsions:
REMARK  status: ('A' for Active; 'I' for Inactive)
REMARK    1  A    between atoms: _1  and  _3
REMARK    2  A    between atoms: _3  and  _4
REMARK    3  A    between atoms: _3  and  _6
REMARK    4  A    between atoms: _6  and  _7
REMARK    5  A    between atoms: _17  and  _19
REMARK    6  A    between atoms: _19  and  _20
REMARK    7  A    between atoms: _19  and  _22
REMARK    8  A    between atoms: _22  and  _23
REMARK    9  A    between atoms: _28  and  _29
REMARK   10  A    between atoms: _31  and  _33
REMARK   11  A    between atoms: _33  and  _34
REMARK   12  A    between atoms: _33  and  _36
REMARK   13  A    between atoms: _36  and  _37
REMARK   14  A    between atoms: _47  and  _49
REMARK   15  A    between atoms: _49  and  _50
REMARK   16  A    between atoms: _49  and  _52
REMARK   17  A    between atoms: _52  and  _53
REMARK   18  A    between atoms: _55  and  _57
REMARK   19  A    between atoms: _57  and  _58
REMARK   20  A    between atoms: _57  and  _60
REMARK   21  A    between atoms: _60  and  _61
REMARK   22  A    between atoms: _66  and  _68
REMARK   23  A    between atoms: _68  and  _69
REMARK   24  A    between atoms: _68  and  _71
REMARK   25  A    between atoms: _71  and  _72
REMARK   26  A    between atoms: _77  and  _79
REMARK   27  A    between atoms: _79  and  _80
REMARK   28  A    between atoms: _79  and  _82
REMARK   29  A    between atoms: _82  and  _83
REMARK   30  A    between atoms: _86  and  _88
REMARK   31  A    between atoms: _88  and  _89
REMARK   32  A    between atoms: _88  and  _91
REMARK   33  A    between atoms: _91  and  _92
REMARK   34  A    between atoms: _92  and  _93
REMARK   35  A    between atoms: _98  and  _100
REMARK   36  A    between atoms: _100  and  _101
REMARK   37  A    between atoms: _100  and  _103
REMARK   38  A    between atoms: _103  and  _104
REMARK   39  A    between atoms: _110  and  _112
REMARK   40  A    between atoms: _112  and  _113
REMARK   41  A    between atoms: _112  and  _115
REMARK   42  A    between atoms: _115  and  _116
REMARK   43  A    between atoms: _120  and  ZN_369
REMARK   44  A    between atoms: _121  and  _123
REMARK   45  A    between atoms: _123  and  _124
REMARK   46  A    between atoms: _123  and  _126
REMARK   47  A    between atoms: _126  and  _127
REMARK   48  A    between atoms: _131  and  ZN_369
REMARK   49  A    between atoms: _132  and  _134
REMARK   50  A    between atoms: _134  and  _135
REMARK   51  A    between atoms: _134  and  _137
REMARK   52  A    between atoms: _137  and  _138
REMARK   53  A    between atoms: _138  and  _139
REMARK   54  A    between atoms: _142  and  _144
REMARK   55  A    between atoms: _144  and  _145
REMARK   56  A    between atoms: _144  and  _147
REMARK   57  A    between atoms: _147  and  _148
REMARK   58  A    between atoms: _153  and  _155
REMARK   59  A    between atoms: _155  and  _156
REMARK   60  A    between atoms: _155  and  _158
REMARK   61  A    between atoms: _158  and  _159
REMARK   62  A    between atoms: _159  and  _160
REMARK   63  A    between atoms: _163  and  _165
REMARK   64  A    between atoms: _165  and  _166
REMARK   65  A    between atoms: _165  and  _168
REMARK   66  A    between atoms: _168  and  _169
REMARK   67  A    between atoms: _170  and  ZN_369
REMARK   68  A    between atoms: _174  and  _176
REMARK   69  A    between atoms: _176  and  _177
REMARK   70  A    between atoms: _176  and  _179
REMARK   71  A    between atoms: _179  and  _180
REMARK   72  A    between atoms: _183  and  _185
REMARK   73  A    between atoms: _185  and  _186
REMARK   74  A    between atoms: _185  and  _188
REMARK   75  A    between atoms: _191  and  _193
REMARK   76  A    between atoms: _193  and  _194
REMARK   77  A    between atoms: _193  and  _196
REMARK   78  A    between atoms: _196  and  _197
REMARK   79  A    between atoms: _202  and  _204
REMARK   80  A    between atoms: _204  and  _205
REMARK   81  A    between atoms: _204  and  _207
REMARK   82  A    between atoms: _207  and  _208
REMARK   83  A    between atoms: _214  and  _216
REMARK   84  A    between atoms: _216  and  _217
REMARK   85  A    between atoms: _216  and  _219
REMARK   86  A    between atoms: _222  and  _224
REMARK   87  A    between atoms: _224  and  _225
REMARK   88  A    between atoms: _224  and  _227
REMARK   89  A    between atoms: _227  and  _228
REMARK   90  A    between atoms: _231  and  _233
REMARK   91  A    between atoms: _233  and  _234
REMARK   92  A    between atoms: _237  and  _239
REMARK   93  A    between atoms: _239  and  _240
REMARK   94  A    between atoms: _239  and  _242
REMARK   95  A    between atoms: _245  and  _247
REMARK   96  A    between atoms: _247  and  _248
REMARK   97  A    between atoms: _247  and  _250
REMARK   98  A    between atoms: _250  and  _251
REMARK   99  A    between atoms: _254  and  _256
REMARK  100  A    between atoms: _256  and  _257
REMARK  101  A    between atoms: _256  and  _259
REMARK  102  A    between atoms: _259  and  _260
REMARK  103  A    between atoms: _262  and  _264
REMARK  104  A    between atoms: _264  and  _265
REMARK  105  A    between atoms: _264  and  _267
REMARK  106  A    between atoms: _267  and  _268
REMARK  107  A    between atoms: _271  and  _273
REMARK  108  A    between atoms: _273  and  _274
REMARK  109  A    between atoms: _273  and  _276
REMARK  110  A    between atoms: _276  and  _277
REMARK  111  A    between atoms: _280  and  _282
REMARK  112  A    between atoms: _282  and  _283
REMARK  113  A    between atoms: _282  and  _285
REMARK  114  A    between atoms: _285  and  _286
REMARK  115  A    between atoms: _290  and  _291
REMARK  116  A    between atoms: _297  and  _298
REMARK  117  A    between atoms: _303  and  _305
REMARK  118  A    between atoms: _305  and  _306
REMARK  119  A    between atoms: _305  and  _308
REMARK  120  A    between atoms: _308  and  _309
REMARK  121  A    between atoms: _312  and  _314
REMARK  122  A    between atoms: _314  and  _315
REMARK  123  A    between atoms: _314  and  _317
REMARK  124  A    between atoms: _317  and  _318
REMARK  125  A    between atoms: _321  and  _323
REMARK  126  A    between atoms: _323  and  _324
REMARK  127  A    between atoms: _323  and  _326
REMARK  128  A    between atoms: _328  and  _330
REMARK  129  A    between atoms: _330  and  _331
REMARK  130  A    between atoms: _330  and  _333
REMARK  131  A    between atoms: _336  and  _338
REMARK  132  A    between atoms: _338  and  _339
REMARK  133  A    between atoms: _338  and  _341
REMARK  134  A    between atoms: _341  and  _342
REMARK  135  A    between atoms: _352  and  _354
REMARK  136  A    between atoms: _354  and  _355
REMARK  137  A    between atoms: _354  and  _357
REMARK  138  A    between atoms: _357  and  _358
REMARK  139  A    between atoms: _358  and  _359
REMARK  140  A    between atoms: _359  and  _360
REMARK                            x       y       z     vdW  Elec       q    Type
REMARK                         _______ _______ _______ _____ _____    ______ ____
ROOT
ATOM      1 ZN   UNK A   4      14.423  -1.681  15.252  0.00  0.00    +0.000 Zn
ENDROOT
BRANCH   1   2
ATOM      2  N   UNK A   4      15.109  -3.540  14.680  0.00  0.00    +0.000 N 
ATOM      3  C   UNK A   4      14.307  -4.670  14.636  0.00  0.00    +0.000 A 
ATOM      4  C   UNK A   4      15.096  -5.721  14.281  0.00  0.00    +0.000 A 
ATOM      5  N   UNK A   4      16.337  -5.192  13.978  0.00  0.00    +0.000 NA
ATOM      6  C   UNK A   4      16.333  -3.895  14.325  0.00  0.00    +0.000 A 
BRANCH   4   7
ATOM      7  C   UNK A   4      14.813  -7.161  13.962  0.00  0.00    +0.000 C 
BRANCH   7   8
ATOM      8  C   UNK A   4      14.174  -7.398  12.578  0.00  0.00    +0.000 C 
BRANCH   8   9
ATOM      9  C   UNK A   4      13.785  -8.856  12.488  0.00  0.00    +0.000 C 
ATOM     10  O   UNK A   1      12.719  -9.226  12.993  0.00  0.00    +0.000 OA
ENDBRANCH   8   9
BRANCH   8  11
ATOM     11  N   UNK A   4      12.964  -6.600  12.421  0.00  0.00    +0.000 NA
ATOM     12  H   UNK A   1      12.156  -6.778  13.051  0.00  0.00    +0.000 HD
ENDBRANCH   8  11
ENDBRANCH   7   8
ENDBRANCH   4   7
ENDBRANCH   1   2
BRANCH   1  13
ATOM     13  N   UNK A   4      12.902  -2.433  16.528  0.00  0.00    +0.000 N 
ATOM     14  C   UNK A   4      13.222  -3.332  17.445  0.00  0.00    +0.000 A 
ATOM     15  N   UNK A   4      12.097  -3.761  18.020  0.00  0.00    +0.000 NA
ATOM     16  C   UNK A   4      11.029  -3.077  17.433  0.00  0.00    +0.000 A 
ATOM     17  C   UNK A   4      11.534  -2.246  16.512  0.00  0.00    +0.000 A 
BRANCH  17  18
ATOM     18  C   UNK A   4      10.829  -1.287  15.583  0.00  0.00    +0.000 C 
BRANCH  18  19
ATOM     19  C   UNK A   4       9.310  -1.581  15.584  0.00  0.00    +0.000 C 
BRANCH  19  20
ATOM     20  C   UNK A   4       8.651  -0.434  14.888  0.00  0.00    +0.000 C 
ATOM     21  N   LEU A   2       7.640   0.172  15.541  0.00  0.00    +0.000 N 
ATOM     22  H   LEU A   2       7.314  -0.266  16.426  0.00  0.00    +0.000 HD
ATOM     23  O   UNK A   4       9.039  -0.032  13.739  0.00  0.00    +0.000 OA
BRANCH  21  24
ATOM     24  CA  LEU A   2       6.935   1.445  15.090  0.00  0.00    +0.000 C 
BRANCH  24  25
ATOM     25  C   LEU A   2       7.524   2.594  15.859  0.00  0.00    +0.000 C 
ATOM     26  O   LEU A   2       7.467   2.588  17.091  0.00  0.00    +0.000 OA
ATOM     27  N   VAL A   3       8.299   3.404  15.143  0.00  0.00    +0.000 N 
ATOM     28  H   VAL A   3       8.315   3.313  14.107  0.00  0.00    +0.000 HD
BRANCH  27  29
ATOM     29  CA  VAL A   3       9.141   4.435  15.799  0.00  0.00    +0.000 C 
BRANCH  29  30
ATOM     30  C   VAL A   3       8.433   5.756  15.817  0.00  0.00    +0.000 C 
ATOM     31  N   UNK A   4       8.388   6.378  17.010  0.00  0.00    +0.000 N 
ATOM     32  H   UNK A   4       8.877   5.959  17.827  0.00  0.00    +0.000 HD
ATOM     33  O   VAL A   3       7.955   6.244  14.787  0.00  0.00    +0.000 OA
BRANCH  31  34
ATOM     34  C   UNK A   4       7.655   7.645  17.172  0.00  0.00    +0.000 C 
BRANCH  34  35
ATOM     35  C   UNK A   4       8.563   8.623  17.911  0.00  0.00    +0.000 C 
ATOM     36  O   UNK A   4       9.265   8.240  18.811  0.00  0.00    +0.000 OA
ENDBRANCH  34  35
BRANCH  34  37
ATOM     37  C   UNK A   4       6.346   7.465  18.026  0.00  0.00    +0.000 C 
BRANCH  37  38
ATOM     38  C   UNK A   4       5.466   6.319  17.590  0.00  0.00    +0.000 A 
ATOM     39  N   UNK A   4       5.821   4.990  17.821  0.00  0.00    +0.000 NA
ATOM     40  C   UNK A   4       4.821   4.206  17.401  0.00  0.00    +0.000 A 
ATOM     41  N   UNK A   4       3.886   4.960  16.834  0.00  0.00    +0.000 NA
ATOM     42  C   UNK A   4       4.226   6.294  17.004  0.00  0.00    +0.000 A 
ENDBRANCH  37  38
ENDBRANCH  34  37
ENDBRANCH  31  34
ENDBRANCH  29  30
BRANCH  29  43
ATOM     43  CB  VAL A   3      10.420   4.574  15.008  0.00  0.00    +0.000 C 
ATOM     44  CG2 VAL A   3      11.337   5.642  15.628  0.00  0.00    +0.000 C 
ATOM     45  CG1 VAL A   3      11.174   3.177  14.793  0.00  0.00    +0.000 C 
ENDBRANCH  29  43
ENDBRANCH  27  29
ENDBRANCH  24  25
BRANCH  24  46
ATOM     46  CB  LEU A   2       5.434   1.300  15.300  0.00  0.00    +0.000 C 
BRANCH  46  47
ATOM     47  CG  LEU A   2       4.827   0.176  14.429  0.00  0.00    +0.000 C 
ATOM     48  CD2 LEU A   2       3.940  -0.704  15.260  0.00  0.00    +0.000 C 
ATOM     49  CD1 LEU A   2       3.982   0.816  13.335  0.00  0.00    +0.000 C 
ENDBRANCH  46  47
ENDBRANCH  24  46
ENDBRANCH  21  24
ENDBRANCH  19  20
BRANCH  19  50
ATOM     50  N   UNK A   4       9.080  -2.799  14.789  0.00  0.00    +0.000 NA
ATOM     51  H   UNK A   1       9.409  -2.828  13.803  0.00  0.00    +0.000 HD
ENDBRANCH  19  50
ENDBRANCH  18  19
ENDBRANCH  17  18
ENDBRANCH   1  13
BRANCH   1  54
ATOM     52  C   UNK A   4      12.842  -0.791  11.531  0.00  0.00    +0.000 A 
ATOM     53  C   UNK A   4      13.449  -1.626  12.401  0.00  0.00    +0.000 A 
ATOM     54  N   UNK A   4      13.658  -0.929  13.567  0.00  0.00    +0.000 N 
ATOM     55  C   UNK A   4      13.177   0.308  13.388  0.00  0.00    +0.000 A 
ATOM     56  N   UNK A   4      12.624   0.411  12.182  0.00  0.00    +0.000 NA
BRANCH  52  57
ATOM     57  C   UNK A   4      12.283  -1.075  10.182  0.00  0.00    +0.000 C 
BRANCH  57  58
ATOM     58  C   UNK A   4      10.789  -1.568  10.263  0.00  0.00    +0.000 C 
BRANCH  58  60
ATOM     59  C   VAL A   3       9.378   0.416  10.201  0.00  0.00    +0.000 C 
ATOM     60  N   UNK A   4       9.891  -0.630  10.883  0.00  0.00    +0.000 N 
ATOM     61  H   UNK A   4       9.631  -0.761  11.881  0.00  0.00    +0.000 HD
ATOM     62  O   VAL A   3       9.580   0.566   9.020  0.00  0.00    +0.000 OA
BRANCH  59  63
ATOM     63  CA  VAL A   3       8.401   1.266  10.978  0.00  0.00    +0.000 C 
BRANCH  63  66
ATOM     64  C   LEU A   2       8.490   3.684  11.088  0.00  0.00    +0.000 C 
ATOM     65  O   LEU A   2       8.380   3.710  12.340  0.00  0.00    +0.000 OA
ATOM     66  N   VAL A   3       8.279   2.591  10.384  0.00  0.00    +0.000 N 
ATOM     67  H   VAL A   3       8.019   2.676   9.381  0.00  0.00    +0.000 HD
BRANCH  64  68
ATOM     68  CA  LEU A   2       8.685   4.949  10.311  0.00  0.00    +0.000 C 
BRANCH  68  70
ATOM     69  C   UNK A   1       8.232   7.301  10.655  0.00  0.00    +0.000 C 
ATOM     70  N   LEU A   2       8.401   6.090  11.187  0.00  0.00    +0.000 N 
ATOM     71  H   LEU A   2       8.332   5.956  12.216  0.00  0.00    +0.000 HD
ATOM     72  O   UNK A   1       8.336   7.482   9.443  0.00  0.00    +0.000 OA
BRANCH  69  73
ATOM     73  C   UNK A   1       7.931   8.478  11.591  0.00  0.00    +0.000 C 
BRANCH  73  74
ATOM     74  C   UNK A   1       9.253   9.182  12.101  0.00  0.00    +0.000 C 
ATOM     75  C   UNK A   1      10.001   8.373  13.231  0.00  0.00    +0.000 C 
BRANCH  74  76
ATOM     76  C   UNK A   1      10.227   9.427  10.925  0.00  0.00    +0.000 C 
ATOM     77  C   UNK A   1      11.364  10.452  11.260  0.00  0.00    +0.000 C 
ENDBRANCH  74  76
ENDBRANCH  73  74
BRANCH  73  78
ATOM     78  N   UNK A   1       7.050   8.099  12.699  0.00  0.00    +0.000 NA
ATOM     79  H   UNK A   1       7.402   7.437  13.420  0.00  0.00    +0.000 HD
ENDBRANCH  73  78
ENDBRANCH  69  73
ENDBRANCH  68  70
BRANCH  68  80
ATOM     80  CB  LEU A   2      10.150   4.986   9.813  0.00  0.00    +0.000 C 
BRANCH  80  81
ATOM     81  CG  LEU A   2      11.154   5.078  10.982  0.00  0.00    +0.000 C 
BRANCH  81  82
ATOM     82  CD  LEU A   2      11.984   3.817  11.168  0.00  0.00    +0.000 C 
ATOM     83  NE2 LEU A   2      13.281   4.001  11.383  0.00  0.00    +0.000 N 
ATOM     84 HE21 LEU A   2      13.905   3.182  11.530  0.00  0.00    +0.000 HD
ATOM     85 HE22 LEU A   2      13.673   4.964  11.404  0.00  0.00    +0.000 HD
ATOM     86  OE1 LEU A   2      11.480   2.712  11.134  0.00  0.00    +0.000 OA
ENDBRANCH  81  82
ENDBRANCH  80  81
ENDBRANCH  68  80
ENDBRANCH  64  68
ENDBRANCH  63  66
BRANCH  63  87
ATOM     87  CB  VAL A   3       7.042   0.540  11.254  0.00  0.00    +0.000 C 
BRANCH  87  88
ATOM     88  CG  VAL A   3       6.320   0.062  10.030  0.00  0.00    +0.000 A 
ATOM     89  CD2 VAL A   3       5.211   0.805   9.599  0.00  0.00    +0.000 A 
ATOM     90  CE2 VAL A   3       4.484   0.350   8.458  0.00  0.00    +0.000 A 
ATOM     91  CZ  VAL A   3       4.888  -0.860   7.806  0.00  0.00    +0.000 A 
ATOM     92  CE1 VAL A   3       6.016  -1.552   8.221  0.00  0.00    +0.000 A 
ATOM     93  CD1 VAL A   3       6.706  -1.093   9.347  0.00  0.00    +0.000 A 
ENDBRANCH  87  88
ENDBRANCH  63  87
ENDBRANCH  59  63
ENDBRANCH  58  60
BRANCH  58  94
ATOM     94  C   UNK A   4      10.732  -2.844  11.089  0.00  0.00    +0.000 C 
ATOM     95  O   UNK A   4      10.065  -2.891  12.119  0.00  0.00    +0.000 OA
ENDBRANCH  58  94
ENDBRANCH  57  58
ENDBRANCH  52  57
ENDBRANCH   1  54
TORSDOF 39
REMARK  Name = ../refined-set-2016/4q8x/4q8x_pocket.pdb
REMARK  140 active torsions:
REMARK  status: ('A' for Active; 'I' for Inactive)
REMARK    1  A    between atoms: _1  and  _3
REMARK    2  A    between atoms: _3  and  _4
REMARK    3  A    between atoms: _3  and  _6
REMARK    4  A    between atoms: _6  and  _7
REMARK    5  A    between atoms: _17  and  _19
REMARK    6  A    between atoms: _19  and  _20
REMARK    7  A    between atoms: _19  and  _22
REMARK    8  A    between atoms: _22  and  _23
REMARK    9  A    between atoms: _28  and  _29
REMARK   10  A    between atoms: _31  and  _33
REMARK   11  A    between atoms: _33  and  _34
REMARK   12  A    between atoms: _33  and  _36
REMARK   13  A    between atoms: _36  and  _37
REMARK   14  A    between atoms: _47  and  _49
REMARK   15  A    between atoms: _49  and  _50
REMARK   16  A    between atoms: _49  and  _52
REMARK   17  A    between atoms: _52  and  _53
REMARK   18  A    between atoms: _55  and  _57
REMARK   19  A    between atoms: _57  and  _58
REMARK   20  A    between atoms: _57  and  _60
REMARK   21  A    between atoms: _60  and  _61
REMARK   22  A    between atoms: _66  and  _68
REMARK   23  A    between atoms: _68  and  _69
REMARK   24  A    between atoms: _68  and  _71
REMARK   25  A    between atoms: _71  and  _72
REMARK   26  A    between atoms: _77  and  _79
REMARK   27  A    between atoms: _79  and  _80
REMARK   28  A    between atoms: _79  and  _82
REMARK   29  A    between atoms: _82  and  _83
REMARK   30  A    between atoms: _86  and  _88
REMARK   31  A    between atoms: _88  and  _89
REMARK   32  A    between atoms: _88  and  _91
REMARK   33  A    between atoms: _91  and  _92
REMARK   34  A    between atoms: _92  and  _93
REMARK   35  A    between atoms: _98  and  _100
REMARK   36  A    between atoms: _100  and  _101
REMARK   37  A    between atoms: _100  and  _103
REMARK   38  A    between atoms: _103  and  _104
REMARK   39  A    between atoms: _110  and  _112
REMARK   40  A    between atoms: _112  and  _113
REMARK   41  A    between atoms: _112  and  _115
REMARK   42  A    between atoms: _115  and  _116
REMARK   43  A    between atoms: _120  and  ZN_369
REMARK   44  A    between atoms: _121  and  _123
REMARK   45  A    between atoms: _123  and  _124
REMARK   46  A    between atoms: _123  and  _126
REMARK   47  A    between atoms: _126  and  _127
REMARK   48  A    between atoms: _131  and  ZN_369
REMARK   49  A    between atoms: _132  and  _134
REMARK   50  A    between atoms: _134  and  _135
REMARK   51  A    between atoms: _134  and  _137
REMARK   52  A    between atoms: _137  and  _138
REMARK   53  A    between atoms: _138  and  _139
REMARK   54  A    between atoms: _142  and  _144
REMARK   55  A    between atoms: _144  and  _145
REMARK   56  A    between atoms: _144  and  _147
REMARK   57  A    between atoms: _147  and  _148
REMARK   58  A    between atoms: _153  and  _155
REMARK   59  A    between atoms: _155  and  _156
REMARK   60  A    between atoms: _155  and  _158
REMARK   61  A    between atoms: _158  and  _159
REMARK   62  A    between atoms: _159  and  _160
REMARK   63  A    between atoms: _163  and  _165
REMARK   64  A    between atoms: _165  and  _166
REMARK   65  A    between atoms: _165  and  _168
REMARK   66  A    between atoms: _168  and  _169
REMARK   67  A    between atoms: _170  and  ZN_369
REMARK   68  A    between atoms: _174  and  _176
REMARK   69  A    between atoms: _176  and  _177
REMARK   70  A    between atoms: _176  and  _179
REMARK   71  A    between atoms: _179  and  _180
REMARK   72  A    between atoms: _183  and  _185
REMARK   73  A    between atoms: _185  and  _186
REMARK   74  A    between atoms: _185  and  _188
REMARK   75  A    between atoms: _191  and  _193
REMARK   76  A    between atoms: _193  and  _194
REMARK   77  A    between atoms: _193  and  _196
REMARK   78  A    between atoms: _196  and  _197
REMARK   79  A    between atoms: _202  and  _204
REMARK   80  A    between atoms: _204  and  _205
REMARK   81  A    between atoms: _204  and  _207
REMARK   82  A    between atoms: _207  and  _208
REMARK   83  A    between atoms: _214  and  _216
REMARK   84  A    between atoms: _216  and  _217
REMARK   85  A    between atoms: _216  and  _219
REMARK   86  A    between atoms: _222  and  _224
REMARK   87  A    between atoms: _224  and  _225
REMARK   88  A    between atoms: _224  and  _227
REMARK   89  A    between atoms: _227  and  _228
REMARK   90  A    between atoms: _231  and  _233
REMARK   91  A    between atoms: _233  and  _234
REMARK   92  A    between atoms: _237  and  _239
REMARK   93  A    between atoms: _239  and  _240
REMARK   94  A    between atoms: _239  and  _242
REMARK   95  A    between atoms: _245  and  _247
REMARK   96  A    between atoms: _247  and  _248
REMARK   97  A    between atoms: _247  and  _250
REMARK   98  A    between atoms: _250  and  _251
REMARK   99  A    between atoms: _254  and  _256
REMARK  100  A    between atoms: _256  and  _257
REMARK  101  A    between atoms: _256  and  _259
REMARK  102  A    between atoms: _259  and  _260
REMARK  103  A    between atoms: _262  and  _264
REMARK  104  A    between atoms: _264  and  _265
REMARK  105  A    between atoms: _264  and  _267
REMARK  106  A    between atoms: _267  and  _268
REMARK  107  A    between atoms: _271  and  _273
REMARK  108  A    between atoms: _273  and  _274
REMARK  109  A    between atoms: _273  and  _276
REMARK  110  A    between atoms: _276  and  _277
REMARK  111  A    between atoms: _280  and  _282
REMARK  112  A    between atoms: _282  and  _283
REMARK  113  A    between atoms: _282  and  _285
REMARK  114  A    between atoms: _285  and  _286
REMARK  115  A    between atoms: _290  and  _291
REMARK  116  A    between atoms: _297  and  _298
REMARK  117  A    between atoms: _303  and  _305
REMARK  118  A    between atoms: _305  and  _306
REMARK  119  A    between atoms: _305  and  _308
REMARK  120  A    between atoms: _308  and  _309
REMARK  121  A    between atoms: _312  and  _314
REMARK  122  A    between atoms: _314  and  _315
REMARK  123  A    between atoms: _314  and  _317
REMARK  124  A    between atoms: _317  and  _318
REMARK  125  A    between atoms: _321  and  _323
REMARK  126  A    between atoms: _323  and  _324
REMARK  127  A    between atoms: _323  and  _326
REMARK  128  A    between atoms: _328  and  _330
REMARK  129  A    between atoms: _330  and  _331
REMARK  130  A    between atoms: _330  and  _333
REMARK  131  A    between atoms: _336  and  _338
REMARK  132  A    between atoms: _338  and  _339
REMARK  133  A    between atoms: _338  and  _341
REMARK  134  A    between atoms: _341  and  _342
REMARK  135  A    between atoms: _352  and  _354
REMARK  136  A    between atoms: _354  and  _355
REMARK  137  A    between atoms: _354  and  _357
REMARK  138  A    between atoms: _357  and  _358
REMARK  139  A    between atoms: _358  and  _359
REMARK  140  A    between atoms: _359  and  _360
REMARK                            x       y       z     vdW  Elec       q    Type
REMARK                         _______ _______ _______ _____ _____    ______ ____
ROOT
ATOM      1  C   GLU A   1      15.050  -8.661  21.032  0.00  0.00    +0.238 C 
ATOM      2  O   GLU A   1      15.820  -9.273  21.816  0.00  0.00    -0.274 OA
ATOM      3  N   HIS A   2      13.853  -8.174  21.436  0.00  0.00    -0.298 N 
ATOM      4  H   HIS A   2      13.276  -7.555  20.831  0.00  0.00    +0.150 HD
ENDROOT
BRANCH   1   5
ATOM      5  CA  GLU A   1      15.435  -8.537  19.564  0.00  0.00    +0.145 C 
BRANCH   5   6
ATOM      6  N   GLU A   1      14.382  -9.239  18.709  0.00  0.00    -0.238 NA
ATOM      7  H   GLU A   1      13.521  -8.729  18.427  0.00  0.00    +0.142 HD
ENDBRANCH   5   6
BRANCH   5   8
ATOM      8  CB  GLU A   1      15.445  -7.069  19.181  0.00  0.00    +0.038 C 
BRANCH   8   9
ATOM      9  CG  GLU A   1      15.984  -6.964  17.674  0.00  0.00    +0.116 C 
BRANCH   9  10
ATOM     10  CD  GLU A   1      16.638  -5.645  17.382  0.00  0.00    +0.365 C 
ATOM     11  OE2 GLU A   1      16.006  -4.589  17.639  0.00  0.00    -0.246 OA
ATOM     12  OE1 GLU A   1      17.758  -5.670  16.858  0.00  0.00    -0.246 OA
ENDBRANCH   9  10
ENDBRANCH   8   9
ENDBRANCH   5   8
ENDBRANCH   1   5
BRANCH   3  13
ATOM     13  CA  HIS A   2      13.429  -8.566  22.753  0.00  0.00    +0.143 C 
BRANCH  13  14
ATOM     14  C   HIS A   2      13.063 -10.021  22.798  0.00  0.00    +0.227 C 
ATOM     15  O   HIS A   2      12.728 -10.640  21.767  0.00  0.00    -0.286 OA
ENDBRANCH  13  14
BRANCH  13  16
ATOM     16  CB  HIS A   2      12.185  -7.738  23.102  0.00  0.00    +0.075 C 
BRANCH  16  17
ATOM     17  CG  HIS A   2      12.546  -6.276  23.257  0.00  0.00    +0.082 A 
ATOM     18  CD2 HIS A   2      12.991  -5.578  24.331  0.00  0.00    +0.115 A 
ATOM     19  NE2 HIS A   2      13.220  -4.287  23.922  0.00  0.00    -0.221 NA
ATOM     20  CE1 HIS A   2      12.891  -4.186  22.642  0.00  0.00    +0.199 A 
ATOM     21  ND1 HIS A   2      12.456  -5.380  22.225  0.00  0.00    -0.227 NA
ENDBRANCH  16  17
ENDBRANCH  13  16
ENDBRANCH   3  13
TORSDOF 9
REMARK  Name = ../refined-set-2016/4q8x/4q8x_pocket.pdb
REMARK  140 active torsions:
REMARK  status: ('A' for Active; 'I' for Inactive)
REMARK    1  A    between atoms: _1  and  _3
REMARK    2  A    between atoms: _3  and  _4
REMARK    3  A    between atoms: _3  and  _6
REMARK    4  A    between atoms: _6  and  _7
REMARK    5  A    between atoms: _17  and  _19
REMARK    6  A    between atoms: _19  and  _20
REMARK    7  A    between atoms: _19  and  _22
REMARK    8  A    between atoms: _22  and  _23
REMARK    9  A    between atoms: _28  and  _29
REMARK   10  A    between atoms: _31  and  _33
REMARK   11  A    between atoms: _33  and  _34
REMARK   12  A    between atoms: _33  and  _36
REMARK   13  A    between atoms: _36  and  _37
REMARK   14  A    between atoms: _47  and  _49
REMARK   15  A    between atoms: _49  and  _50
REMARK   16  A    between atoms: _49  and  _52
REMARK   17  A    between atoms: _52  and  _53
REMARK   18  A    between atoms: _55  and  _57
REMARK   19  A    between atoms: _57  and  _58
REMARK   20  A    between atoms: _57  and  _60
REMARK   21  A    between atoms: _60  and  _61
REMARK   22  A    between atoms: _66  and  _68
REMARK   23  A    between atoms: _68  and  _69
REMARK   24  A    between atoms: _68  and  _71
REMARK   25  A    between atoms: _71  and  _72
REMARK   26  A    between atoms: _77  and  _79
REMARK   27  A    between atoms: _79  and  _80
REMARK   28  A    between atoms: _79  and  _82
REMARK   29  A    between atoms: _82  and  _83
REMARK   30  A    between atoms: _86  and  _88
REMARK   31  A    between atoms: _88  and  _89
REMARK   32  A    between atoms: _88  and  _91
REMARK   33  A    between atoms: _91  and  _92
REMARK   34  A    between atoms: _92  and  _93
REMARK   35  A    between atoms: _98  and  _100
REMARK   36  A    between atoms: _100  and  _101
REMARK   37  A    between atoms: _100  and  _103
REMARK   38  A    between atoms: _103  and  _104
REMARK   39  A    between atoms: _110  and  _112
REMARK   40  A    between atoms: _112  and  _113
REMARK   41  A    between atoms: _112  and  _115
REMARK   42  A    between atoms: _115  and  _116
REMARK   43  A    between atoms: _120  and  ZN_369
REMARK   44  A    between atoms: _121  and  _123
REMARK   45  A    between atoms: _123  and  _124
REMARK   46  A    between atoms: _123  and  _126
REMARK   47  A    between atoms: _126  and  _127
REMARK   48  A    between atoms: _131  and  ZN_369
REMARK   49  A    between atoms: _132  and  _134
REMARK   50  A    between atoms: _134  and  _135
REMARK   51  A    between atoms: _134  and  _137
REMARK   52  A    between atoms: _137  and  _138
REMARK   53  A    between atoms: _138  and  _139
REMARK   54  A    between atoms: _142  and  _144
REMARK   55  A    between atoms: _144  and  _145
REMARK   56  A    between atoms: _144  and  _147
REMARK   57  A    between atoms: _147  and  _148
REMARK   58  A    between atoms: _153  and  _155
REMARK   59  A    between atoms: _155  and  _156
REMARK   60  A    between atoms: _155  and  _158
REMARK   61  A    between atoms: _158  and  _159
REMARK   62  A    between atoms: _159  and  _160
REMARK   63  A    between atoms: _163  and  _165
REMARK   64  A    between atoms: _165  and  _166
REMARK   65  A    between atoms: _165  and  _168
REMARK   66  A    between atoms: _168  and  _169
REMARK   67  A    between atoms: _170  and  ZN_369
REMARK   68  A    between atoms: _174  and  _176
REMARK   69  A    between atoms: _176  and  _177
REMARK   70  A    between atoms: _176  and  _179
REMARK   71  A    between atoms: _179  and  _180
REMARK   72  A    between atoms: _183  and  _185
REMARK   73  A    between atoms: _185  and  _186
REMARK   74  A    between atoms: _185  and  _188
REMARK   75  A    between atoms: _191  and  _193
REMARK   76  A    between atoms: _193  and  _194
REMARK   77  A    between atoms: _193  and  _196
REMARK   78  A    between atoms: _196  and  _197
REMARK   79  A    between atoms: _202  and  _204
REMARK   80  A    between atoms: _204  and  _205
REMARK   81  A    between atoms: _204  and  _207
REMARK   82  A    between atoms: _207  and  _208
REMARK   83  A    between atoms: _214  and  _216
REMARK   84  A    between atoms: _216  and  _217
REMARK   85  A    between atoms: _216  and  _219
REMARK   86  A    between atoms: _222  and  _224
REMARK   87  A    between atoms: _224  and  _225
REMARK   88  A    between atoms: _224  and  _227
REMARK   89  A    between atoms: _227  and  _228
REMARK   90  A    between atoms: _231  and  _233
REMARK   91  A    between atoms: _233  and  _234
REMARK   92  A    between atoms: _237  and  _239
REMARK   93  A    between atoms: _239  and  _240
REMARK   94  A    between atoms: _239  and  _242
REMARK   95  A    between atoms: _245  and  _247
REMARK   96  A    between atoms: _247  and  _248
REMARK   97  A    between atoms: _247  and  _250
REMARK   98  A    between atoms: _250  and  _251
REMARK   99  A    between atoms: _254  and  _256
REMARK  100  A    between atoms: _256  and  _257
REMARK  101  A    between atoms: _256  and  _259
REMARK  102  A    between atoms: _259  and  _260
REMARK  103  A    between atoms: _262  and  _264
REMARK  104  A    between atoms: _264  and  _265
REMARK  105  A    between atoms: _264  and  _267
REMARK  106  A    between atoms: _267  and  _268
REMARK  107  A    between atoms: _271  and  _273
REMARK  108  A    between atoms: _273  and  _274
REMARK  109  A    between atoms: _273  and  _276
REMARK  110  A    between atoms: _276  and  _277
REMARK  111  A    between atoms: _280  and  _282
REMARK  112  A    between atoms: _282  and  _283
REMARK  113  A    between atoms: _282  and  _285
REMARK  114  A    between atoms: _285  and  _286
REMARK  115  A    between atoms: _290  and  _291
REMARK  116  A    between atoms: _297  and  _298
REMARK  117  A    between atoms: _303  and  _305
REMARK  118  A    between atoms: _305  and  _306
REMARK  119  A    between atoms: _305  and  _308
REMARK  120  A    between atoms: _308  and  _309
REMARK  121  A    between atoms: _312  and  _314
REMARK  122  A    between atoms: _314  and  _315
REMARK  123  A    between atoms: _314  and  _317
REMARK  124  A    between atoms: _317  and  _318
REMARK  125  A    between atoms: _321  and  _323
REMARK  126  A    between atoms: _323  and  _324
REMARK  127  A    between atoms: _323  and  _326
REMARK  128  A    between atoms: _328  and  _330
REMARK  129  A    between atoms: _330  and  _331
REMARK  130  A    between atoms: _330  and  _333
REMARK  131  A    between atoms: _336  and  _338
REMARK  132  A    between atoms: _338  and  _339
REMARK  133  A    between atoms: _338  and  _341
REMARK  134  A    between atoms: _341  and  _342
REMARK  135  A    between atoms: _352  and  _354
REMARK  136  A    between atoms: _354  and  _355
REMARK  137  A    between atoms: _354  and  _357
REMARK  138  A    between atoms: _357  and  _358
REMARK  139  A    between atoms: _358  and  _359
REMARK  140  A    between atoms: _359  and  _360
REMARK                            x       y       z     vdW  Elec       q    Type
REMARK                         _______ _______ _______ _____ _____    ______ ____
ROOT
ATOM      1  CA  GLU A   1       9.940  -8.111  15.699  0.00  0.00    +0.134 C 
ENDROOT
BRANCH   1   2
ATOM      2  N   GLU A   1      10.449  -9.131  14.786  0.00  0.00    -0.239 NA
ATOM      3  H   GLU A   1      11.082  -8.857  14.008  0.00  0.00    +0.142 HD
ENDBRANCH   1   2
BRANCH   1   4
ATOM      4  C   GLU A   1       9.774  -6.823  14.871  0.00  0.00    +0.224 C 
ATOM      5  O   GLU A   1      10.706  -6.412  14.149  0.00  0.00    -0.287 OA
ENDBRANCH   1   4
BRANCH   1   6
ATOM      6  CB  GLU A   1      10.929  -7.892  16.851  0.00  0.00    +0.037 C 
BRANCH   6   7
ATOM      7  CG  GLU A   1      10.471  -6.864  17.906  0.00  0.00    +0.116 C 
BRANCH   7   8
ATOM      8  CD  GLU A   1      11.405  -6.843  19.106  0.00  0.00    +0.365 C 
ATOM      9  OE2 GLU A   1      11.488  -5.712  19.661  0.00  0.00    -0.246 OA
ATOM     10  OE1 GLU A   1      11.930  -7.909  19.414  0.00  0.00    -0.246 OA
ENDBRANCH   7   8
ENDBRANCH   6   7
ENDBRANCH   1   6
TORSDOF 5
REMARK  Name = ../refined-set-2016/4q8x/4q8x_pocket.pdb
REMARK  140 active torsions:
REMARK  status: ('A' for Active; 'I' for Inactive)
REMARK    1  A    between atoms: _1  and  _3
REMARK    2  A    between atoms: _3  and  _4
REMARK    3  A    between atoms: _3  and  _6
REMARK    4  A    between atoms: _6  and  _7
REMARK    5  A    between atoms: _17  and  _19
REMARK    6  A    between atoms: _19  and  _20
REMARK    7  A    between atoms: _19  and  _22
REMARK    8  A    between atoms: _22  and  _23
REMARK    9  A    between atoms: _28  and  _29
REMARK   10  A    between atoms: _31  and  _33
REMARK   11  A    between atoms: _33  and  _34
REMARK   12  A    between atoms: _33  and  _36
REMARK   13  A    between atoms: _36  and  _37
REMARK   14  A    between atoms: _47  and  _49
REMARK   15  A    between atoms: _49  and  _50
REMARK   16  A    between atoms: _49  and  _52
REMARK   17  A    between atoms: _52  and  _53
REMARK   18  A    between atoms: _55  and  _57
REMARK   19  A    between atoms: _57  and  _58
REMARK   20  A    between atoms: _57  and  _60
REMARK   21  A    between atoms: _60  and  _61
REMARK   22  A    between atoms: _66  and  _68
REMARK   23  A    between atoms: _68  and  _69
REMARK   24  A    between atoms: _68  and  _71
REMARK   25  A    between atoms: _71  and  _72
REMARK   26  A    between atoms: _77  and  _79
REMARK   27  A    between atoms: _79  and  _80
REMARK   28  A    between atoms: _79  and  _82
REMARK   29  A    between atoms: _82  and  _83
REMARK   30  A    between atoms: _86  and  _88
REMARK   31  A    between atoms: _88  and  _89
REMARK   32  A    between atoms: _88  and  _91
REMARK   33  A    between atoms: _91  and  _92
REMARK   34  A    between atoms: _92  and  _93
REMARK   35  A    between atoms: _98  and  _100
REMARK   36  A    between atoms: _100  and  _101
REMARK   37  A    between atoms: _100  and  _103
REMARK   38  A    between atoms: _103  and  _104
REMARK   39  A    between atoms: _110  and  _112
REMARK   40  A    between atoms: _112  and  _113
REMARK   41  A    between atoms: _112  and  _115
REMARK   42  A    between atoms: _115  and  _116
REMARK   43  A    between atoms: _120  and  ZN_369
REMARK   44  A    between atoms: _121  and  _123
REMARK   45  A    between atoms: _123  and  _124
REMARK   46  A    between atoms: _123  and  _126
REMARK   47  A    between atoms: _126  and  _127
REMARK   48  A    between atoms: _131  and  ZN_369
REMARK   49  A    between atoms: _132  and  _134
REMARK   50  A    between atoms: _134  and  _135
REMARK   51  A    between atoms: _134  and  _137
REMARK   52  A    between atoms: _137  and  _138
REMARK   53  A    between atoms: _138  and  _139
REMARK   54  A    between atoms: _142  and  _144
REMARK   55  A    between atoms: _144  and  _145
REMARK   56  A    between atoms: _144  and  _147
REMARK   57  A    between atoms: _147  and  _148
REMARK   58  A    between atoms: _153  and  _155
REMARK   59  A    between atoms: _155  and  _156
REMARK   60  A    between atoms: _155  and  _158
REMARK   61  A    between atoms: _158  and  _159
REMARK   62  A    between atoms: _159  and  _160
REMARK   63  A    between atoms: _163  and  _165
REMARK   64  A    between atoms: _165  and  _166
REMARK   65  A    between atoms: _165  and  _168
REMARK   66  A    between atoms: _168  and  _169
REMARK   67  A    between atoms: _170  and  ZN_369
REMARK   68  A    between atoms: _174  and  _176
REMARK   69  A    between atoms: _176  and  _177
REMARK   70  A    between atoms: _176  and  _179
REMARK   71  A    between atoms: _179  and  _180
REMARK   72  A    between atoms: _183  and  _185
REMARK   73  A    between atoms: _185  and  _186
REMARK   74  A    between atoms: _185  and  _188
REMARK   75  A    between atoms: _191  and  _193
REMARK   76  A    between atoms: _193  and  _194
REMARK   77  A    between atoms: _193  and  _196
REMARK   78  A    between atoms: _196  and  _197
REMARK   79  A    between atoms: _202  and  _204
REMARK   80  A    between atoms: _204  and  _205
REMARK   81  A    between atoms: _204  and  _207
REMARK   82  A    between atoms: _207  and  _208
REMARK   83  A    between atoms: _214  and  _216
REMARK   84  A    between atoms: _216  and  _217
REMARK   85  A    between atoms: _216  and  _219
REMARK   86  A    between atoms: _222  and  _224
REMARK   87  A    between atoms: _224  and  _225
REMARK   88  A    between atoms: _224  and  _227
REMARK   89  A    between atoms: _227  and  _228
REMARK   90  A    between atoms: _231  and  _233
REMARK   91  A    between atoms: _233  and  _234
REMARK   92  A    between atoms: _237  and  _239
REMARK   93  A    between atoms: _239  and  _240
REMARK   94  A    between atoms: _239  and  _242
REMARK   95  A    between atoms: _245  and  _247
REMARK   96  A    between atoms: _247  and  _248
REMARK   97  A    between atoms: _247  and  _250
REMARK   98  A    between atoms: _250  and  _251
REMARK   99  A    between atoms: _254  and  _256
REMARK  100  A    between atoms: _256  and  _257
REMARK  101  A    between atoms: _256  and  _259
REMARK  102  A    between atoms: _259  and  _260
REMARK  103  A    between atoms: _262  and  _264
REMARK  104  A    between atoms: _264  and  _265
REMARK  105  A    between atoms: _264  and  _267
REMARK  106  A    between atoms: _267  and  _268
REMARK  107  A    between atoms: _271  and  _273
REMARK  108  A    between atoms: _273  and  _274
REMARK  109  A    between atoms: _273  and  _276
REMARK  110  A    between atoms: _276  and  _277
REMARK  111  A    between atoms: _280  and  _282
REMARK  112  A    between atoms: _282  and  _283
REMARK  113  A    between atoms: _282  and  _285
REMARK  114  A    between atoms: _285  and  _286
REMARK  115  A    between atoms: _290  and  _291
REMARK  116  A    between atoms: _297  and  _298
REMARK  117  A    between atoms: _303  and  _305
REMARK  118  A    between atoms: _305  and  _306
REMARK  119  A    between atoms: _305  and  _308
REMARK  120  A    between atoms: _308  and  _309
REMARK  121  A    between atoms: _312  and  _314
REMARK  122  A    between atoms: _314  and  _315
REMARK  123  A    between atoms: _314  and  _317
REMARK  124  A    between atoms: _317  and  _318
REMARK  125  A    between atoms: _321  and  _323
REMARK  126  A    between atoms: _323  and  _324
REMARK  127  A    between atoms: _323  and  _326
REMARK  128  A    between atoms: _328  and  _330
REMARK  129  A    between atoms: _330  and  _331
REMARK  130  A    between atoms: _330  and  _333
REMARK  131  A    between atoms: _336  and  _338
REMARK  132  A    between atoms: _338  and  _339
REMARK  133  A    between atoms: _338  and  _341
REMARK  134  A    between atoms: _341  and  _342
REMARK  135  A    between atoms: _352  and  _354
REMARK  136  A    between atoms: _354  and  _355
REMARK  137  A    between atoms: _354  and  _357
REMARK  138  A    between atoms: _357  and  _358
REMARK  139  A    between atoms: _358  and  _359
REMARK  140  A    between atoms: _359  and  _360
REMARK                            x       y       z     vdW  Elec       q    Type
REMARK                         _______ _______ _______ _____ _____    ______ ____
ROOT
ATOM      1  CB  PHE A   1      13.060  12.520  13.864  0.00  0.00    +0.051 C 
ENDROOT
BRANCH   1   2
ATOM      2  CG  PHE A   1      13.772  11.216  14.137  0.00  0.00    -0.020 A 
ATOM      3  CD2 PHE A   1      13.124  10.173  14.843  0.00  0.00    -0.004 A 
ATOM      4  CE2 PHE A   1      13.777   9.008  15.080  0.00  0.00    -0.000 A 
ATOM      5  CZ  PHE A   1      15.071   8.866  14.699  0.00  0.00    -0.000 A 
ATOM      6  CE1 PHE A   1      15.742   9.858  14.015  0.00  0.00    -0.000 A 
ATOM      7  CD1 PHE A   1      15.120  11.060  13.784  0.00  0.00    -0.004 A 
ENDBRANCH   1   2
BRANCH   1   8
ATOM      8  CA  PHE A   1      13.191  13.571  15.016  0.00  0.00    +0.137 C 
BRANCH   8   9
ATOM      9  N   PHE A   1      12.526  14.808  14.682  0.00  0.00    -0.239 NA
ATOM     10  H   PHE A   1      12.153  14.914  13.717  0.00  0.00    +0.142 HD
ENDBRANCH   8   9
BRANCH   8  11
ATOM     11  C   PHE A   1      14.598  13.815  15.420  0.00  0.00    +0.224 C 
ATOM     12  O   PHE A   1      15.078  13.214  16.427  0.00  0.00    -0.287 OA
ENDBRANCH   8  11
ENDBRANCH   1   8
TORSDOF 4
REMARK  Name = ../refined-set-2016/4q8x/4q8x_pocket.pdb
REMARK  140 active torsions:
REMARK  status: ('A' for Active; 'I' for Inactive)
REMARK    1  A    between atoms: _1  and  _3
REMARK    2  A    between atoms: _3  and  _4
REMARK    3  A    between atoms: _3  and  _6
REMARK    4  A    between atoms: _6  and  _7
REMARK    5  A    between atoms: _17  and  _19
REMARK    6  A    between atoms: _19  and  _20
REMARK    7  A    between atoms: _19  and  _22
REMARK    8  A    between atoms: _22  and  _23
REMARK    9  A    between atoms: _28  and  _29
REMARK   10  A    between atoms: _31  and  _33
REMARK   11  A    between atoms: _33  and  _34
REMARK   12  A    between atoms: _33  and  _36
REMARK   13  A    between atoms: _36  and  _37
REMARK   14  A    between atoms: _47  and  _49
REMARK   15  A    between atoms: _49  and  _50
REMARK   16  A    between atoms: _49  and  _52
REMARK   17  A    between atoms: _52  and  _53
REMARK   18  A    between atoms: _55  and  _57
REMARK   19  A    between atoms: _57  and  _58
REMARK   20  A    between atoms: _57  and  _60
REMARK   21  A    between atoms: _60  and  _61
REMARK   22  A    between atoms: _66  and  _68
REMARK   23  A    between atoms: _68  and  _69
REMARK   24  A    between atoms: _68  and  _71
REMARK   25  A    between atoms: _71  and  _72
REMARK   26  A    between atoms: _77  and  _79
REMARK   27  A    between atoms: _79  and  _80
REMARK   28  A    between atoms: _79  and  _82
REMARK   29  A    between atoms: _82  and  _83
REMARK   30  A    between atoms: _86  and  _88
REMARK   31  A    between atoms: _88  and  _89
REMARK   32  A    between atoms: _88  and  _91
REMARK   33  A    between atoms: _91  and  _92
REMARK   34  A    between atoms: _92  and  _93
REMARK   35  A    between atoms: _98  and  _100
REMARK   36  A    between atoms: _100  and  _101
REMARK   37  A    between atoms: _100  and  _103
REMARK   38  A    between atoms: _103  and  _104
REMARK   39  A    between atoms: _110  and  _112
REMARK   40  A    between atoms: _112  and  _113
REMARK   41  A    between atoms: _112  and  _115
REMARK   42  A    between atoms: _115  and  _116
REMARK   43  A    between atoms: _120  and  ZN_369
REMARK   44  A    between atoms: _121  and  _123
REMARK   45  A    between atoms: _123  and  _124
REMARK   46  A    between atoms: _123  and  _126
REMARK   47  A    between atoms: _126  and  _127
REMARK   48  A    between atoms: _131  and  ZN_369
REMARK   49  A    between atoms: _132  and  _134
REMARK   50  A    between atoms: _134  and  _135
REMARK   51  A    between atoms: _134  and  _137
REMARK   52  A    between atoms: _137  and  _138
REMARK   53  A    between atoms: _138  and  _139
REMARK   54  A    between atoms: _142  and  _144
REMARK   55  A    between atoms: _144  and  _145
REMARK   56  A    between atoms: _144  and  _147
REMARK   57  A    between atoms: _147  and  _148
REMARK   58  A    between atoms: _153  and  _155
REMARK   59  A    between atoms: _155  and  _156
REMARK   60  A    between atoms: _155  and  _158
REMARK   61  A    between atoms: _158  and  _159
REMARK   62  A    between atoms: _159  and  _160
REMARK   63  A    between atoms: _163  and  _165
REMARK   64  A    between atoms: _165  and  _166
REMARK   65  A    between atoms: _165  and  _168
REMARK   66  A    between atoms: _168  and  _169
REMARK   67  A    between atoms: _170  and  ZN_369
REMARK   68  A    between atoms: _174  and  _176
REMARK   69  A    between atoms: _176  and  _177
REMARK   70  A    between atoms: _176  and  _179
REMARK   71  A    between atoms: _179  and  _180
REMARK   72  A    between atoms: _183  and  _185
REMARK   73  A    between atoms: _185  and  _186
REMARK   74  A    between atoms: _185  and  _188
REMARK   75  A    between atoms: _191  and  _193
REMARK   76  A    between atoms: _193  and  _194
REMARK   77  A    between atoms: _193  and  _196
REMARK   78  A    between atoms: _196  and  _197
REMARK   79  A    between atoms: _202  and  _204
REMARK   80  A    between atoms: _204  and  _205
REMARK   81  A    between atoms: _204  and  _207
REMARK   82  A    between atoms: _207  and  _208
REMARK   83  A    between atoms: _214  and  _216
REMARK   84  A    between atoms: _216  and  _217
REMARK   85  A    between atoms: _216  and  _219
REMARK   86  A    between atoms: _222  and  _224
REMARK   87  A    between atoms: _224  and  _225
REMARK   88  A    between atoms: _224  and  _227
REMARK   89  A    between atoms: _227  and  _228
REMARK   90  A    between atoms: _231  and  _233
REMARK   91  A    between atoms: _233  and  _234
REMARK   92  A    between atoms: _237  and  _239
REMARK   93  A    between atoms: _239  and  _240
REMARK   94  A    between atoms: _239  and  _242
REMARK   95  A    between atoms: _245  and  _247
REMARK   96  A    between atoms: _247  and  _248
REMARK   97  A    between atoms: _247  and  _250
REMARK   98  A    between atoms: _250  and  _251
REMARK   99  A    between atoms: _254  and  _256
REMARK  100  A    between atoms: _256  and  _257
REMARK  101  A    between atoms: _256  and  _259
REMARK  102  A    between atoms: _259  and  _260
REMARK  103  A    between atoms: _262  and  _264
REMARK  104  A    between atoms: _264  and  _265
REMARK  105  A    between atoms: _264  and  _267
REMARK  106  A    between atoms: _267  and  _268
REMARK  107  A    between atoms: _271  and  _273
REMARK  108  A    between atoms: _273  and  _274
REMARK  109  A    between atoms: _273  and  _276
REMARK  110  A    between atoms: _276  and  _277
REMARK  111  A    between atoms: _280  and  _282
REMARK  112  A    between atoms: _282  and  _283
REMARK  113  A    between atoms: _282  and  _285
REMARK  114  A    between atoms: _285  and  _286
REMARK  115  A    between atoms: _290  and  _291
REMARK  116  A    between atoms: _297  and  _298
REMARK  117  A    between atoms: _303  and  _305
REMARK  118  A    between atoms: _305  and  _306
REMARK  119  A    between atoms: _305  and  _308
REMARK  120  A    between atoms: _308  and  _309
REMARK  121  A    between atoms: _312  and  _314
REMARK  122  A    between atoms: _314  and  _315
REMARK  123  A    between atoms: _314  and  _317
REMARK  124  A    between atoms: _317  and  _318
REMARK  125  A    between atoms: _321  and  _323
REMARK  126  A    between atoms: _323  and  _324
REMARK  127  A    between atoms: _323  and  _326
REMARK  128  A    between atoms: _328  and  _330
REMARK  129  A    between atoms: _330  and  _331
REMARK  130  A    between atoms: _330  and  _333
REMARK  131  A    between atoms: _336  and  _338
REMARK  132  A    between atoms: _338  and  _339
REMARK  133  A    between atoms: _338  and  _341
REMARK  134  A    between atoms: _341  and  _342
REMARK  135  A    between atoms: _352  and  _354
REMARK  136  A    between atoms: _354  and  _355
REMARK  137  A    between atoms: _354  and  _357
REMARK  138  A    between atoms: _357  and  _358
REMARK  139  A    between atoms: _358  and  _359
REMARK  140  A    between atoms: _359  and  _360
REMARK                            x       y       z     vdW  Elec       q    Type
REMARK                         _______ _______ _______ _____ _____    ______ ____
ROOT
ATOM      1  CA  VAL A   1      17.174  11.733  19.612  0.00  0.00    +0.133 C 
ENDROOT
BRANCH   1   2
ATOM      2  CB  VAL A   1      17.689  10.898  18.408  0.00  0.00    +0.023 C 
ATOM      3  CG2 VAL A   1      16.473  10.216  17.683  0.00  0.00    +0.002 C 
ATOM      4  CG1 VAL A   1      18.536  11.733  17.428  0.00  0.00    +0.002 C 
ENDBRANCH   1   2
BRANCH   1   5
ATOM      5  N   VAL A   1      16.126  12.747  19.261  0.00  0.00    -0.239 NA
ATOM      6  H   VAL A   1      16.056  13.113  18.290  0.00  0.00    +0.142 HD
ENDBRANCH   1   5
BRANCH   1   7
ATOM      7  C   VAL A   1      18.342  12.323  20.399  0.00  0.00    +0.224 C 
ATOM      8  O   VAL A   1      19.207  11.545  20.814  0.00  0.00    -0.287 OA
ENDBRANCH   1   7
TORSDOF 3
REMARK  Name = ../refined-set-2016/4q8x/4q8x_pocket.pdb
REMARK  140 active torsions:
REMARK  status: ('A' for Active; 'I' for Inactive)
REMARK    1  A    between atoms: _1  and  _3
REMARK    2  A    between atoms: _3  and  _4
REMARK    3  A    between atoms: _3  and  _6
REMARK    4  A    between atoms: _6  and  _7
REMARK    5  A    between atoms: _17  and  _19
REMARK    6  A    between atoms: _19  and  _20
REMARK    7  A    between atoms: _19  and  _22
REMARK    8  A    between atoms: _22  and  _23
REMARK    9  A    between atoms: _28  and  _29
REMARK   10  A    between atoms: _31  and  _33
REMARK   11  A    between atoms: _33  and  _34
REMARK   12  A    between atoms: _33  and  _36
REMARK   13  A    between atoms: _36  and  _37
REMARK   14  A    between atoms: _47  and  _49
REMARK   15  A    between atoms: _49  and  _50
REMARK   16  A    between atoms: _49  and  _52
REMARK   17  A    between atoms: _52  and  _53
REMARK   18  A    between atoms: _55  and  _57
REMARK   19  A    between atoms: _57  and  _58
REMARK   20  A    between atoms: _57  and  _60
REMARK   21  A    between atoms: _60  and  _61
REMARK   22  A    between atoms: _66  and  _68
REMARK   23  A    between atoms: _68  and  _69
REMARK   24  A    between atoms: _68  and  _71
REMARK   25  A    between atoms: _71  and  _72
REMARK   26  A    between atoms: _77  and  _79
REMARK   27  A    between atoms: _79  and  _80
REMARK   28  A    between atoms: _79  and  _82
REMARK   29  A    between atoms: _82  and  _83
REMARK   30  A    between atoms: _86  and  _88
REMARK   31  A    between atoms: _88  and  _89
REMARK   32  A    between atoms: _88  and  _91
REMARK   33  A    between atoms: _91  and  _92
REMARK   34  A    between atoms: _92  and  _93
REMARK   35  A    between atoms: _98  and  _100
REMARK   36  A    between atoms: _100  and  _101
REMARK   37  A    between atoms: _100  and  _103
REMARK   38  A    between atoms: _103  and  _104
REMARK   39  A    between atoms: _110  and  _112
REMARK   40  A    between atoms: _112  and  _113
REMARK   41  A    between atoms: _112  and  _115
REMARK   42  A    between atoms: _115  and  _116
REMARK   43  A    between atoms: _120  and  ZN_369
REMARK   44  A    between atoms: _121  and  _123
REMARK   45  A    between atoms: _123  and  _124
REMARK   46  A    between atoms: _123  and  _126
REMARK   47  A    between atoms: _126  and  _127
REMARK   48  A    between atoms: _131  and  ZN_369
REMARK   49  A    between atoms: _132  and  _134
REMARK   50  A    between atoms: _134  and  _135
REMARK   51  A    between atoms: _134  and  _137
REMARK   52  A    between atoms: _137  and  _138
REMARK   53  A    between atoms: _138  and  _139
REMARK   54  A    between atoms: _142  and  _144
REMARK   55  A    between atoms: _144  and  _145
REMARK   56  A    between atoms: _144  and  _147
REMARK   57  A    between atoms: _147  and  _148
REMARK   58  A    between atoms: _153  and  _155
REMARK   59  A    between atoms: _155  and  _156
REMARK   60  A    between atoms: _155  and  _158
REMARK   61  A    between atoms: _158  and  _159
REMARK   62  A    between atoms: _159  and  _160
REMARK   63  A    between atoms: _163  and  _165
REMARK   64  A    between atoms: _165  and  _166
REMARK   65  A    between atoms: _165  and  _168
REMARK   66  A    between atoms: _168  and  _169
REMARK   67  A    between atoms: _170  and  ZN_369
REMARK   68  A    between atoms: _174  and  _176
REMARK   69  A    between atoms: _176  and  _177
REMARK   70  A    between atoms: _176  and  _179
REMARK   71  A    between atoms: _179  and  _180
REMARK   72  A    between atoms: _183  and  _185
REMARK   73  A    between atoms: _185  and  _186
REMARK   74  A    between atoms: _185  and  _188
REMARK   75  A    between atoms: _191  and  _193
REMARK   76  A    between atoms: _193  and  _194
REMARK   77  A    between atoms: _193  and  _196
REMARK   78  A    between atoms: _196  and  _197
REMARK   79  A    between atoms: _202  and  _204
REMARK   80  A    between atoms: _204  and  _205
REMARK   81  A    between atoms: _204  and  _207
REMARK   82  A    between atoms: _207  and  _208
REMARK   83  A    between atoms: _214  and  _216
REMARK   84  A    between atoms: _216  and  _217
REMARK   85  A    between atoms: _216  and  _219
REMARK   86  A    between atoms: _222  and  _224
REMARK   87  A    between atoms: _224  and  _225
REMARK   88  A    between atoms: _224  and  _227
REMARK   89  A    between atoms: _227  and  _228
REMARK   90  A    between atoms: _231  and  _233
REMARK   91  A    between atoms: _233  and  _234
REMARK   92  A    between atoms: _237  and  _239
REMARK   93  A    between atoms: _239  and  _240
REMARK   94  A    between atoms: _239  and  _242
REMARK   95  A    between atoms: _245  and  _247
REMARK   96  A    between atoms: _247  and  _248
REMARK   97  A    between atoms: _247  and  _250
REMARK   98  A    between atoms: _250  and  _251
REMARK   99  A    between atoms: _254  and  _256
REMARK  100  A    between atoms: _256  and  _257
REMARK  101  A    between atoms: _256  and  _259
REMARK  102  A    between atoms: _259  and  _260
REMARK  103  A    between atoms: _262  and  _264
REMARK  104  A    between atoms: _264  and  _265
REMARK  105  A    between atoms: _264  and  _267
REMARK  106  A    between atoms: _267  and  _268
REMARK  107  A    between atoms: _271  and  _273
REMARK  108  A    between atoms: _273  and  _274
REMARK  109  A    between atoms: _273  and  _276
REMARK  110  A    between atoms: _276  and  _277
REMARK  111  A    between atoms: _280  and  _282
REMARK  112  A    between atoms: _282  and  _283
REMARK  113  A    between atoms: _282  and  _285
REMARK  114  A    between atoms: _285  and  _286
REMARK  115  A    between atoms: _290  and  _291
REMARK  116  A    between atoms: _297  and  _298
REMARK  117  A    between atoms: _303  and  _305
REMARK  118  A    between atoms: _305  and  _306
REMARK  119  A    between atoms: _305  and  _308
REMARK  120  A    between atoms: _308  and  _309
REMARK  121  A    between atoms: _312  and  _314
REMARK  122  A    between atoms: _314  and  _315
REMARK  123  A    between atoms: _314  and  _317
REMARK  124  A    between atoms: _317  and  _318
REMARK  125  A    between atoms: _321  and  _323
REMARK  126  A    between atoms: _323  and  _324
REMARK  127  A    between atoms: _323  and  _326
REMARK  128  A    between atoms: _328  and  _330
REMARK  129  A    between atoms: _330  and  _331
REMARK  130  A    between atoms: _330  and  _333
REMARK  131  A    between atoms: _336  and  _338
REMARK  132  A    between atoms: _338  and  _339
REMARK  133  A    between atoms: _338  and  _341
REMARK  134  A    between atoms: _341  and  _342
REMARK  135  A    between atoms: _352  and  _354
REMARK  136  A    between atoms: _354  and  _355
REMARK  137  A    between atoms: _354  and  _357
REMARK  138  A    between atoms: _357  and  _358
REMARK  139  A    between atoms: _358  and  _359
REMARK  140  A    between atoms: _359  and  _360
REMARK                            x       y       z     vdW  Elec       q    Type
REMARK                         _______ _______ _______ _____ _____    ______ ____
ROOT
ATOM      1  C   ALA A   2       8.653   4.814  20.778  0.00  0.00    +0.241 C 
ATOM      2  N   VAL A   3       9.104   3.566  21.041  0.00  0.00    -0.297 N 
ATOM      3  H   VAL A   3       9.469   3.347  21.990  0.00  0.00    +0.150 HD
ATOM      4  O   ALA A   2       8.309   5.144  19.637  0.00  0.00    -0.273 OA
ENDROOT
BRANCH   1   5
ATOM      5  CA  ALA A   2       8.734   5.853  21.878  0.00  0.00    +0.149 C 
ATOM      6  CB  ALA A   2       7.291   6.274  22.310  0.00  0.00    +0.031 C 
BRANCH   5   9
ATOM      7  C   LEU A   1      10.465   7.488  22.086  0.00  0.00    +0.238 C 
ATOM      8  O   LEU A   1      10.747   7.196  23.270  0.00  0.00    -0.274 OA
ATOM      9  N   ALA A   2       9.465   6.990  21.363  0.00  0.00    -0.297 N 
ATOM     10  H   ALA A   2       9.214   7.410  20.445  0.00  0.00    +0.150 HD
BRANCH   7  11
ATOM     11  CA  LEU A   1      11.373   8.391  21.279  0.00  0.00    +0.145 C 
BRANCH  11  12
ATOM     12  N   LEU A   1      12.029   9.391  22.149  0.00  0.00    -0.238 NA
ATOM     13  H   LEU A   1      12.598   9.074  22.960  0.00  0.00    +0.142 HD
ENDBRANCH  11  12
BRANCH  11  14
ATOM     14  CB  LEU A   1      12.421   7.565  20.498  0.00  0.00    +0.026 C 
BRANCH  14  15
ATOM     15  CG  LEU A   1      13.352   8.372  19.641  0.00  0.00    +0.002 C 
ATOM     16  CD2 LEU A   1      14.210   7.316  18.860  0.00  0.00    +0.000 C 
ATOM     17  CD1 LEU A   1      12.669   9.152  18.529  0.00  0.00    +0.000 C 
ENDBRANCH  14  15
ENDBRANCH  11  14
ENDBRANCH   7  11
ENDBRANCH   5   9
ENDBRANCH   1   5
BRANCH   2  18
ATOM     18  CA  VAL A   3       9.090   2.529  20.031  0.00  0.00    +0.149 C 
BRANCH  18  19
ATOM     19  C   VAL A   3       8.103   1.481  20.531  0.00  0.00    +0.241 C 
ATOM     20  O   VAL A   3       8.216   0.968  21.640  0.00  0.00    -0.273 OA
ATOM     21  N   LEU A   4       7.112   1.224  19.677  0.00  0.00    -0.298 N 
ATOM     22  H   LEU A   4       7.035   1.792  18.810  0.00  0.00    +0.150 HD
BRANCH  21  23
ATOM     23  CA  LEU A   4       6.121   0.159  19.923  0.00  0.00    +0.137 C 
BRANCH  23  24
ATOM     24  C   LEU A   4       6.678  -1.070  19.250  0.00  0.00    +0.227 C 
ATOM     25  O   LEU A   4       6.816  -1.130  18.042  0.00  0.00    -0.286 OA
ENDBRANCH  23  24
BRANCH  23  26
ATOM     26  CB  LEU A   4       4.738   0.587  19.329  0.00  0.00    +0.028 C 
BRANCH  26  27
ATOM     27  CG  LEU A   4       3.644  -0.411  19.484  0.00  0.00    +0.002 C 
ATOM     28  CD2 LEU A   4       3.372  -0.687  20.967  0.00  0.00    +0.000 C 
ATOM     29  CD1 LEU A   4       2.365   0.191  18.817  0.00  0.00    +0.000 C 
ENDBRANCH  26  27
ENDBRANCH  23  26
ENDBRANCH  21  23
ENDBRANCH  18  19
BRANCH  18  30
ATOM     30  CB  VAL A   3      10.448   1.946  19.713  0.00  0.00    +0.027 C 
ATOM     31  CG2 VAL A   3      11.349   3.049  19.234  0.00  0.00    +0.002 C 
ATOM     32  CG1 VAL A   3      10.311   0.910  18.547  0.00  0.00    +0.002 C 
ENDBRANCH  18  30
ENDBRANCH   2  18
TORSDOF 13
REMARK  Name = ../refined-set-2016/4q8x/4q8x_pocket.pdb
REMARK  140 active torsions:
REMARK  status: ('A' for Active; 'I' for Inactive)
REMARK    1  A    between atoms: _1  and  _3
REMARK    2  A    between atoms: _3  and  _4
REMARK    3  A    between atoms: _3  and  _6
REMARK    4  A    between atoms: _6  and  _7
REMARK    5  A    between atoms: _17  and  _19
REMARK    6  A    between atoms: _19  and  _20
REMARK    7  A    between atoms: _19  and  _22
REMARK    8  A    between atoms: _22  and  _23
REMARK    9  A    between atoms: _28  and  _29
REMARK   10  A    between atoms: _31  and  _33
REMARK   11  A    between atoms: _33  and  _34
REMARK   12  A    between atoms: _33  and  _36
REMARK   13  A    between atoms: _36  and  _37
REMARK   14  A    between atoms: _47  and  _49
REMARK   15  A    between atoms: _49  and  _50
REMARK   16  A    between atoms: _49  and  _52
REMARK   17  A    between atoms: _52  and  _53
REMARK   18  A    between atoms: _55  and  _57
REMARK   19  A    between atoms: _57  and  _58
REMARK   20  A    between atoms: _57  and  _60
REMARK   21  A    between atoms: _60  and  _61
REMARK   22  A    between atoms: _66  and  _68
REMARK   23  A    between atoms: _68  and  _69
REMARK   24  A    between atoms: _68  and  _71
REMARK   25  A    between atoms: _71  and  _72
REMARK   26  A    between atoms: _77  and  _79
REMARK   27  A    between atoms: _79  and  _80
REMARK   28  A    between atoms: _79  and  _82
REMARK   29  A    between atoms: _82  and  _83
REMARK   30  A    between atoms: _86  and  _88
REMARK   31  A    between atoms: _88  and  _89
REMARK   32  A    between atoms: _88  and  _91
REMARK   33  A    between atoms: _91  and  _92
REMARK   34  A    between atoms: _92  and  _93
REMARK   35  A    between atoms: _98  and  _100
REMARK   36  A    between atoms: _100  and  _101
REMARK   37  A    between atoms: _100  and  _103
REMARK   38  A    between atoms: _103  and  _104
REMARK   39  A    between atoms: _110  and  _112
REMARK   40  A    between atoms: _112  and  _113
REMARK   41  A    between atoms: _112  and  _115
REMARK   42  A    between atoms: _115  and  _116
REMARK   43  A    between atoms: _120  and  ZN_369
REMARK   44  A    between atoms: _121  and  _123
REMARK   45  A    between atoms: _123  and  _124
REMARK   46  A    between atoms: _123  and  _126
REMARK   47  A    between atoms: _126  and  _127
REMARK   48  A    between atoms: _131  and  ZN_369
REMARK   49  A    between atoms: _132  and  _134
REMARK   50  A    between atoms: _134  and  _135
REMARK   51  A    between atoms: _134  and  _137
REMARK   52  A    between atoms: _137  and  _138
REMARK   53  A    between atoms: _138  and  _139
REMARK   54  A    between atoms: _142  and  _144
REMARK   55  A    between atoms: _144  and  _145
REMARK   56  A    between atoms: _144  and  _147
REMARK   57  A    between atoms: _147  and  _148
REMARK   58  A    between atoms: _153  and  _155
REMARK   59  A    between atoms: _155  and  _156
REMARK   60  A    between atoms: _155  and  _158
REMARK   61  A    between atoms: _158  and  _159
REMARK   62  A    between atoms: _159  and  _160
REMARK   63  A    between atoms: _163  and  _165
REMARK   64  A    between atoms: _165  and  _166
REMARK   65  A    between atoms: _165  and  _168
REMARK   66  A    between atoms: _168  and  _169
REMARK   67  A    between atoms: _170  and  ZN_369
REMARK   68  A    between atoms: _174  and  _176
REMARK   69  A    between atoms: _176  and  _177
REMARK   70  A    between atoms: _176  and  _179
REMARK   71  A    between atoms: _179  and  _180
REMARK   72  A    between atoms: _183  and  _185
REMARK   73  A    between atoms: _185  and  _186
REMARK   74  A    between atoms: _185  and  _188
REMARK   75  A    between atoms: _191  and  _193
REMARK   76  A    between atoms: _193  and  _194
REMARK   77  A    between atoms: _193  and  _196
REMARK   78  A    between atoms: _196  and  _197
REMARK   79  A    between atoms: _202  and  _204
REMARK   80  A    between atoms: _204  and  _205
REMARK   81  A    between atoms: _204  and  _207
REMARK   82  A    between atoms: _207  and  _208
REMARK   83  A    between atoms: _214  and  _216
REMARK   84  A    between atoms: _216  and  _217
REMARK   85  A    between atoms: _216  and  _219
REMARK   86  A    between atoms: _222  and  _224
REMARK   87  A    between atoms: _224  and  _225
REMARK   88  A    between atoms: _224  and  _227
REMARK   89  A    between atoms: _227  and  _228
REMARK   90  A    between atoms: _231  and  _233
REMARK   91  A    between atoms: _233  and  _234
REMARK   92  A    between atoms: _237  and  _239
REMARK   93  A    between atoms: _239  and  _240
REMARK   94  A    between atoms: _239  and  _242
REMARK   95  A    between atoms: _245  and  _247
REMARK   96  A    between atoms: _247  and  _248
REMARK   97  A    between atoms: _247  and  _250
REMARK   98  A    between atoms: _250  and  _251
REMARK   99  A    between atoms: _254  and  _256
REMARK  100  A    between atoms: _256  and  _257
REMARK  101  A    between atoms: _256  and  _259
REMARK  102  A    between atoms: _259  and  _260
REMARK  103  A    between atoms: _262  and  _264
REMARK  104  A    between atoms: _264  and  _265
REMARK  105  A    between atoms: _264  and  _267
REMARK  106  A    between atoms: _267  and  _268
REMARK  107  A    between atoms: _271  and  _273
REMARK  108  A    between atoms: _273  and  _274
REMARK  109  A    between atoms: _273  and  _276
REMARK  110  A    between atoms: _276  and  _277
REMARK  111  A    between atoms: _280  and  _282
REMARK  112  A    between atoms: _282  and  _283
REMARK  113  A    between atoms: _282  and  _285
REMARK  114  A    between atoms: _285  and  _286
REMARK  115  A    between atoms: _290  and  _291
REMARK  116  A    between atoms: _297  and  _298
REMARK  117  A    between atoms: _303  and  _305
REMARK  118  A    between atoms: _305  and  _306
REMARK  119  A    between atoms: _305  and  _308
REMARK  120  A    between atoms: _308  and  _309
REMARK  121  A    between atoms: _312  and  _314
REMARK  122  A    between atoms: _314  and  _315
REMARK  123  A    between atoms: _314  and  _317
REMARK  124  A    between atoms: _317  and  _318
REMARK  125  A    between atoms: _321  and  _323
REMARK  126  A    between atoms: _323  and  _324
REMARK  127  A    between atoms: _323  and  _326
REMARK  128  A    between atoms: _328  and  _330
REMARK  129  A    between atoms: _330  and  _331
REMARK  130  A    between atoms: _330  and  _333
REMARK  131  A    between atoms: _336  and  _338
REMARK  132  A    between atoms: _338  and  _339
REMARK  133  A    between atoms: _338  and  _341
REMARK  134  A    between atoms: _341  and  _342
REMARK  135  A    between atoms: _352  and  _354
REMARK  136  A    between atoms: _354  and  _355
REMARK  137  A    between atoms: _354  and  _357
REMARK  138  A    between atoms: _357  and  _358
REMARK  139  A    between atoms: _358  and  _359
REMARK  140  A    between atoms: _359  and  _360
REMARK                            x       y       z     vdW  Elec       q    Type
REMARK                         _______ _______ _______ _____ _____    ______ ____
ROOT
ATOM      1  C   THR A   4      21.993   0.989  16.288  0.00  0.00    +0.246 C 
ATOM      2  O   THR A   4      21.491   1.964  16.864  0.00  0.00    -0.273 OA
ATOM      3  N   PRO A   5      23.296   0.997  15.830  0.00  0.00    -0.272 N 
ATOM      4  CA  PRO A   5      24.021   2.303  15.939  0.00  0.00    +0.152 C 
ATOM      5  CB  PRO A   5      25.260   2.043  15.038  0.00  0.00    +0.031 C 
ATOM      6  CG  PRO A   5      25.525   0.550  15.293  0.00  0.00    +0.024 C 
ATOM      7  CD  PRO A   5      24.107  -0.092  15.226  0.00  0.00    +0.094 C 
ENDROOT
BRANCH   4   8
ATOM      8  C   PRO A   5      23.141   3.456  15.381  0.00  0.00    +0.244 C 
ATOM      9  N   PRO A   6      23.162   4.618  15.990  0.00  0.00    -0.272 N 
ATOM     10  CA  PRO A   6      24.109   4.992  17.057  0.00  0.00    +0.152 C 
ATOM     11  CB  PRO A   6      24.149   6.499  16.942  0.00  0.00    +0.031 C 
ATOM     12  CG  PRO A   6      22.769   6.854  16.405  0.00  0.00    +0.024 C 
ATOM     13  CD  PRO A   6      22.441   5.782  15.435  0.00  0.00    +0.094 C 
ATOM     14  O   PRO A   5      22.499   3.313  14.272  0.00  0.00    -0.273 OA
BRANCH  10  15
ATOM     15  C   PRO A   6      23.736   4.589  18.504  0.00  0.00    +0.241 C 
ATOM     16  O   PRO A   6      24.308   5.083  19.473  0.00  0.00    -0.273 OA
ATOM     17  N   LEU A   7      22.717   3.714  18.642  0.00  0.00    -0.297 N 
ATOM     18  H   LEU A   7      22.126   3.466  17.823  0.00  0.00    +0.150 HD
BRANCH  17  19
ATOM     19  CA  LEU A   7      22.444   3.108  19.971  0.00  0.00    +0.149 C 
BRANCH  19  20
ATOM     20  C   LEU A   7      22.042   4.136  21.026  0.00  0.00    +0.241 C 
ATOM     21  O   LEU A   7      22.208   3.892  22.217  0.00  0.00    -0.273 OA
ATOM     22  N   LEU A   8      21.447   5.241  20.580  0.00  0.00    -0.298 N 
ATOM     23  H   LEU A   8      21.175   5.319  19.579  0.00  0.00    +0.150 HD
BRANCH  22  24
ATOM     24  CA  LEU A   8      21.172   6.365  21.517  0.00  0.00    +0.137 C 
BRANCH  24  25
ATOM     25  C   LEU A   8      20.116   5.995  22.581  0.00  0.00    +0.227 C 
ATOM     26  O   LEU A   8      19.101   5.311  22.300  0.00  0.00    -0.286 OA
ENDBRANCH  24  25
BRANCH  24  27
ATOM     27  CB  LEU A   8      20.676   7.582  20.701  0.00  0.00    +0.028 C 
BRANCH  27  28
ATOM     28  CG  LEU A   8      21.763   8.118  19.754  0.00  0.00    +0.002 C 
ATOM     29  CD2 LEU A   8      22.979   8.769  20.512  0.00  0.00    +0.000 C 
ATOM     30  CD1 LEU A   8      21.132   9.128  18.717  0.00  0.00    +0.000 C 
ENDBRANCH  27  28
ENDBRANCH  24  27
ENDBRANCH  22  24
ENDBRANCH  19  20
BRANCH  19  31
ATOM     31  CB  LEU A   7      23.580   2.206  20.456  0.00  0.00    +0.029 C 
BRANCH  31  32
ATOM     32  CG  LEU A   7      23.863   1.102  19.460  0.00  0.00    +0.002 C 
ATOM     33  CD2 LEU A   7      25.225   0.397  19.872  0.00  0.00    +0.000 C 
ATOM     34  CD1 LEU A   7      22.816   0.056  19.388  0.00  0.00    +0.000 C 
ENDBRANCH  31  32
ENDBRANCH  19  31
ENDBRANCH  17  19
ENDBRANCH  10  15
ENDBRANCH   4   8
BRANCH   1  35
ATOM     35  CA  THR A   4      21.228  -0.232  15.945  0.00  0.00    +0.176 C 
BRANCH  35  38
ATOM     36  C   THR A   3      19.972  -1.366  17.686  0.00  0.00    +0.243 C 
ATOM     37  O   THR A   3      20.550  -2.426  17.527  0.00  0.00    -0.273 OA
ATOM     38  N   THR A   4      20.099  -0.282  16.879  0.00  0.00    -0.295 N 
ATOM     39  H   THR A   4      19.410   0.496  16.922  0.00  0.00    +0.150 HD
BRANCH  36  40
ATOM     40  CA  THR A   3      18.970  -1.213  18.865  0.00  0.00    +0.176 C 
BRANCH  40  43
ATOM     41  C   LEU A   2      18.633   1.004  19.718  0.00  0.00    +0.241 C 
ATOM     42  O   LEU A   2      19.663   0.828  20.452  0.00  0.00    -0.273 OA
ATOM     43  N   THR A   3      18.243   0.072  18.873  0.00  0.00    -0.295 N 
ATOM     44  H   THR A   3      17.444   0.237  18.228  0.00  0.00    +0.150 HD
BRANCH  41  45
ATOM     45  CA  LEU A   2      17.874   2.334  19.676  0.00  0.00    +0.149 C 
BRANCH  45  48
ATOM     46  C   SER A   1      17.396   2.245  22.063  0.00  0.00    +0.241 C 
ATOM     47  O   SER A   1      16.636   1.276  21.908  0.00  0.00    -0.274 OA
ATOM     48  N   LEU A   2      17.951   2.929  21.034  0.00  0.00    -0.297 N 
ATOM     49  H   LEU A   2      18.418   3.845  21.191  0.00  0.00    +0.150 HD
BRANCH  46  50
ATOM     50  CA  SER A   1      17.824   2.637  23.480  0.00  0.00    +0.174 C 
BRANCH  50  51
ATOM     51  N   SER A   1      17.020   1.996  24.514  0.00  0.00    -0.236 NA
ATOM     52  H   SER A   1      16.758   0.994  24.413  0.00  0.00    +0.142 HD
ENDBRANCH  50  51
BRANCH  50  53
ATOM     53  CB  SER A   1      19.311   2.204  23.557  0.00  0.00    +0.163 C 
BRANCH  53  54
ATOM     54  OG  SER A   1      19.562   0.834  23.230  0.00  0.00    -0.380 OA
ATOM     55  H   SER A   1      19.263   0.657  22.303  0.00  0.00    +0.211 HD
ENDBRANCH  53  54
ENDBRANCH  50  53
ENDBRANCH  46  50
ENDBRANCH  45  48
BRANCH  45  56
ATOM     56  CB  LEU A   2      18.682   3.222  18.710  0.00  0.00    +0.029 C 
BRANCH  56  57
ATOM     57  CG  LEU A   2      18.329   4.714  18.737  0.00  0.00    +0.002 C 
ATOM     58  CD2 LEU A   2      16.789   4.985  18.517  0.00  0.00    +0.000 C 
ATOM     59  CD1 LEU A   2      19.070   5.555  17.634  0.00  0.00    +0.000 C 
ENDBRANCH  56  57
ENDBRANCH  45  56
ENDBRANCH  41  45
ENDBRANCH  40  43
BRANCH  40  60
ATOM     60  CB  THR A   3      17.978  -2.414  18.788  0.00  0.00    +0.137 C 
ATOM     61  CG2 THR A   3      16.948  -2.410  19.935  0.00  0.00    +0.034 C 
BRANCH  60  62
ATOM     62  OG1 THR A   3      17.283  -2.385  17.535  0.00  0.00    -0.382 OA
ATOM     63  HG1 THR A   3      16.654  -3.149  17.490  0.00  0.00    +0.210 HD
ENDBRANCH  60  62
ENDBRANCH  40  60
ENDBRANCH  36  40
ENDBRANCH  35  38
BRANCH  35  64
ATOM     64  CB  THR A   4      20.710  -0.110  14.494  0.00  0.00    +0.137 C 
ATOM     65  CG2 THR A   4      19.900  -1.300  14.098  0.00  0.00    +0.034 C 
BRANCH  64  66
ATOM     66  OG1 THR A   4      20.008   1.131  14.288  0.00  0.00    -0.382 OA
ATOM     67  HG1 THR A   4      20.619   1.889  14.468  0.00  0.00    +0.210 HD
ENDBRANCH  64  66
ENDBRANCH  35  64
ENDBRANCH   1  35
TORSDOF 26
REMARK  Name = ../refined-set-2016/4q8x/4q8x_pocket.pdb
REMARK  140 active torsions:
REMARK  status: ('A' for Active; 'I' for Inactive)
REMARK    1  A    between atoms: _1  and  _3
REMARK    2  A    between atoms: _3  and  _4
REMARK    3  A    between atoms: _3  and  _6
REMARK    4  A    between atoms: _6  and  _7
REMARK    5  A    between atoms: _17  and  _19
REMARK    6  A    between atoms: _19  and  _20
REMARK    7  A    between atoms: _19  and  _22
REMARK    8  A    between atoms: _22  and  _23
REMARK    9  A    between atoms: _28  and  _29
REMARK   10  A    between atoms: _31  and  _33
REMARK   11  A    between atoms: _33  and  _34
REMARK   12  A    between atoms: _33  and  _36
REMARK   13  A    between atoms: _36  and  _37
REMARK   14  A    between atoms: _47  and  _49
REMARK   15  A    between atoms: _49  and  _50
REMARK   16  A    between atoms: _49  and  _52
REMARK   17  A    between atoms: _52  and  _53
REMARK   18  A    between atoms: _55  and  _57
REMARK   19  A    between atoms: _57  and  _58
REMARK   20  A    between atoms: _57  and  _60
REMARK   21  A    between atoms: _60  and  _61
REMARK   22  A    between atoms: _66  and  _68
REMARK   23  A    between atoms: _68  and  _69
REMARK   24  A    between atoms: _68  and  _71
REMARK   25  A    between atoms: _71  and  _72
REMARK   26  A    between atoms: _77  and  _79
REMARK   27  A    between atoms: _79  and  _80
REMARK   28  A    between atoms: _79  and  _82
REMARK   29  A    between atoms: _82  and  _83
REMARK   30  A    between atoms: _86  and  _88
REMARK   31  A    between atoms: _88  and  _89
REMARK   32  A    between atoms: _88  and  _91
REMARK   33  A    between atoms: _91  and  _92
REMARK   34  A    between atoms: _92  and  _93
REMARK   35  A    between atoms: _98  and  _100
REMARK   36  A    between atoms: _100  and  _101
REMARK   37  A    between atoms: _100  and  _103
REMARK   38  A    between atoms: _103  and  _104
REMARK   39  A    between atoms: _110  and  _112
REMARK   40  A    between atoms: _112  and  _113
REMARK   41  A    between atoms: _112  and  _115
REMARK   42  A    between atoms: _115  and  _116
REMARK   43  A    between atoms: _120  and  ZN_369
REMARK   44  A    between atoms: _121  and  _123
REMARK   45  A    between atoms: _123  and  _124
REMARK   46  A    between atoms: _123  and  _126
REMARK   47  A    between atoms: _126  and  _127
REMARK   48  A    between atoms: _131  and  ZN_369
REMARK   49  A    between atoms: _132  and  _134
REMARK   50  A    between atoms: _134  and  _135
REMARK   51  A    between atoms: _134  and  _137
REMARK   52  A    between atoms: _137  and  _138
REMARK   53  A    between atoms: _138  and  _139
REMARK   54  A    between atoms: _142  and  _144
REMARK   55  A    between atoms: _144  and  _145
REMARK   56  A    between atoms: _144  and  _147
REMARK   57  A    between atoms: _147  and  _148
REMARK   58  A    between atoms: _153  and  _155
REMARK   59  A    between atoms: _155  and  _156
REMARK   60  A    between atoms: _155  and  _158
REMARK   61  A    between atoms: _158  and  _159
REMARK   62  A    between atoms: _159  and  _160
REMARK   63  A    between atoms: _163  and  _165
REMARK   64  A    between atoms: _165  and  _166
REMARK   65  A    between atoms: _165  and  _168
REMARK   66  A    between atoms: _168  and  _169
REMARK   67  A    between atoms: _170  and  ZN_369
REMARK   68  A    between atoms: _174  and  _176
REMARK   69  A    between atoms: _176  and  _177
REMARK   70  A    between atoms: _176  and  _179
REMARK   71  A    between atoms: _179  and  _180
REMARK   72  A    between atoms: _183  and  _185
REMARK   73  A    between atoms: _185  and  _186
REMARK   74  A    between atoms: _185  and  _188
REMARK   75  A    between atoms: _191  and  _193
REMARK   76  A    between atoms: _193  and  _194
REMARK   77  A    between atoms: _193  and  _196
REMARK   78  A    between atoms: _196  and  _197
REMARK   79  A    between atoms: _202  and  _204
REMARK   80  A    between atoms: _204  and  _205
REMARK   81  A    between atoms: _204  and  _207
REMARK   82  A    between atoms: _207  and  _208
REMARK   83  A    between atoms: _214  and  _216
REMARK   84  A    between atoms: _216  and  _217
REMARK   85  A    between atoms: _216  and  _219
REMARK   86  A    between atoms: _222  and  _224
REMARK   87  A    between atoms: _224  and  _225
REMARK   88  A    between atoms: _224  and  _227
REMARK   89  A    between atoms: _227  and  _228
REMARK   90  A    between atoms: _231  and  _233
REMARK   91  A    between atoms: _233  and  _234
REMARK   92  A    between atoms: _237  and  _239
REMARK   93  A    between atoms: _239  and  _240
REMARK   94  A    between atoms: _239  and  _242
REMARK   95  A    between atoms: _245  and  _247
REMARK   96  A    between atoms: _247  and  _248
REMARK   97  A    between atoms: _247  and  _250
REMARK   98  A    between atoms: _250  and  _251
REMARK   99  A    between atoms: _254  and  _256
REMARK  100  A    between atoms: _256  and  _257
REMARK  101  A    between atoms: _256  and  _259
REMARK  102  A    between atoms: _259  and  _260
REMARK  103  A    between atoms: _262  and  _264
REMARK  104  A    between atoms: _264  and  _265
REMARK  105  A    between atoms: _264  and  _267
REMARK  106  A    between atoms: _267  and  _268
REMARK  107  A    between atoms: _271  and  _273
REMARK  108  A    between atoms: _273  and  _274
REMARK  109  A    between atoms: _273  and  _276
REMARK  110  A    between atoms: _276  and  _277
REMARK  111  A    between atoms: _280  and  _282
REMARK  112  A    between atoms: _282  and  _283
REMARK  113  A    between atoms: _282  and  _285
REMARK  114  A    between atoms: _285  and  _286
REMARK  115  A    between atoms: _290  and  _291
REMARK  116  A    between atoms: _297  and  _298
REMARK  117  A    between atoms: _303  and  _305
REMARK  118  A    between atoms: _305  and  _306
REMARK  119  A    between atoms: _305  and  _308
REMARK  120  A    between atoms: _308  and  _309
REMARK  121  A    between atoms: _312  and  _314
REMARK  122  A    between atoms: _314  and  _315
REMARK  123  A    between atoms: _314  and  _317
REMARK  124  A    between atoms: _317  and  _318
REMARK  125  A    between atoms: _321  and  _323
REMARK  126  A    between atoms: _323  and  _324
REMARK  127  A    between atoms: _323  and  _326
REMARK  128  A    between atoms: _328  and  _330
REMARK  129  A    between atoms: _330  and  _331
REMARK  130  A    between atoms: _330  and  _333
REMARK  131  A    between atoms: _336  and  _338
REMARK  132  A    between atoms: _338  and  _339
REMARK  133  A    between atoms: _338  and  _341
REMARK  134  A    between atoms: _341  and  _342
REMARK  135  A    between atoms: _352  and  _354
REMARK  136  A    between atoms: _354  and  _355
REMARK  137  A    between atoms: _354  and  _357
REMARK  138  A    between atoms: _357  and  _358
REMARK  139  A    between atoms: _358  and  _359
REMARK  140  A    between atoms: _359  and  _360
REMARK                            x       y       z     vdW  Elec       q    Type
REMARK                         _______ _______ _______ _____ _____    ______ ____
ROOT
ATOM      1  C   CYS A   1      14.873   7.391  24.114  0.00  0.00    +0.239 C 
ATOM      2  N   VAL A   2      14.863   6.076  24.211  0.00  0.00    -0.298 N 
ATOM      3  H   VAL A   2      15.720   5.571  24.515  0.00  0.00    +0.150 HD
ATOM      4  O   CYS A   1      13.852   8.077  24.044  0.00  0.00    -0.274 OA
ENDROOT
BRANCH   1   5
ATOM      5  CA  CYS A   1      16.231   8.014  23.940  0.00  0.00    +0.156 C 
BRANCH   5   6
ATOM      6  N   CYS A   1      17.303   6.988  24.084  0.00  0.00    -0.237 NA
ATOM      7  H   CYS A   1      17.325   6.183  23.426  0.00  0.00    +0.142 HD
ENDBRANCH   5   6
BRANCH   5   8
ATOM      8  CB  CYS A   1      16.176   8.545  22.498  0.00  0.00    +0.095 C 
ATOM      9  SG  CYS A   1      17.664   8.962  21.694  0.00  0.00    -0.080 S 
ENDBRANCH   5   8
ENDBRANCH   1   5
BRANCH   2  10
ATOM     10  CA  VAL A   2      13.605   5.299  23.881  0.00  0.00    +0.137 C 
BRANCH  10  11
ATOM     11  CB  VAL A   2      13.931   4.023  23.084  0.00  0.00    +0.026 C 
ATOM     12  CG2 VAL A   2      12.570   3.357  22.675  0.00  0.00    +0.002 C 
ATOM     13  CG1 VAL A   2      14.720   4.377  21.763  0.00  0.00    +0.002 C 
ENDBRANCH  10  11
BRANCH  10  14
ATOM     14  C   VAL A   2      12.835   4.844  25.124  0.00  0.00    +0.227 C 
ATOM     15  O   VAL A   2      13.372   4.133  25.980  0.00  0.00    -0.286 OA
ENDBRANCH  10  14
ENDBRANCH   2  10
TORSDOF 6
REMARK  Name = ../refined-set-2016/4q8x/4q8x_pocket.pdb
REMARK  140 active torsions:
REMARK  status: ('A' for Active; 'I' for Inactive)
REMARK    1  A    between atoms: _1  and  _3
REMARK    2  A    between atoms: _3  and  _4
REMARK    3  A    between atoms: _3  and  _6
REMARK    4  A    between atoms: _6  and  _7
REMARK    5  A    between atoms: _17  and  _19
REMARK    6  A    between atoms: _19  and  _20
REMARK    7  A    between atoms: _19  and  _22
REMARK    8  A    between atoms: _22  and  _23
REMARK    9  A    between atoms: _28  and  _29
REMARK   10  A    between atoms: _31  and  _33
REMARK   11  A    between atoms: _33  and  _34
REMARK   12  A    between atoms: _33  and  _36
REMARK   13  A    between atoms: _36  and  _37
REMARK   14  A    between atoms: _47  and  _49
REMARK   15  A    between atoms: _49  and  _50
REMARK   16  A    between atoms: _49  and  _52
REMARK   17  A    between atoms: _52  and  _53
REMARK   18  A    between atoms: _55  and  _57
REMARK   19  A    between atoms: _57  and  _58
REMARK   20  A    between atoms: _57  and  _60
REMARK   21  A    between atoms: _60  and  _61
REMARK   22  A    between atoms: _66  and  _68
REMARK   23  A    between atoms: _68  and  _69
REMARK   24  A    between atoms: _68  and  _71
REMARK   25  A    between atoms: _71  and  _72
REMARK   26  A    between atoms: _77  and  _79
REMARK   27  A    between atoms: _79  and  _80
REMARK   28  A    between atoms: _79  and  _82
REMARK   29  A    between atoms: _82  and  _83
REMARK   30  A    between atoms: _86  and  _88
REMARK   31  A    between atoms: _88  and  _89
REMARK   32  A    between atoms: _88  and  _91
REMARK   33  A    between atoms: _91  and  _92
REMARK   34  A    between atoms: _92  and  _93
REMARK   35  A    between atoms: _98  and  _100
REMARK   36  A    between atoms: _100  and  _101
REMARK   37  A    between atoms: _100  and  _103
REMARK   38  A    between atoms: _103  and  _104
REMARK   39  A    between atoms: _110  and  _112
REMARK   40  A    between atoms: _112  and  _113
REMARK   41  A    between atoms: _112  and  _115
REMARK   42  A    between atoms: _115  and  _116
REMARK   43  A    between atoms: _120  and  ZN_369
REMARK   44  A    between atoms: _121  and  _123
REMARK   45  A    between atoms: _123  and  _124
REMARK   46  A    between atoms: _123  and  _126
REMARK   47  A    between atoms: _126  and  _127
REMARK   48  A    between atoms: _131  and  ZN_369
REMARK   49  A    between atoms: _132  and  _134
REMARK   50  A    between atoms: _134  and  _135
REMARK   51  A    between atoms: _134  and  _137
REMARK   52  A    between atoms: _137  and  _138
REMARK   53  A    between atoms: _138  and  _139
REMARK   54  A    between atoms: _142  and  _144
REMARK   55  A    between atoms: _144  and  _145
REMARK   56  A    between atoms: _144  and  _147
REMARK   57  A    between atoms: _147  and  _148
REMARK   58  A    between atoms: _153  and  _155
REMARK   59  A    between atoms: _155  and  _156
REMARK   60  A    between atoms: _155  and  _158
REMARK   61  A    between atoms: _158  and  _159
REMARK   62  A    between atoms: _159  and  _160
REMARK   63  A    between atoms: _163  and  _165
REMARK   64  A    between atoms: _165  and  _166
REMARK   65  A    between atoms: _165  and  _168
REMARK   66  A    between atoms: _168  and  _169
REMARK   67  A    between atoms: _170  and  ZN_369
REMARK   68  A    between atoms: _174  and  _176
REMARK   69  A    between atoms: _176  and  _177
REMARK   70  A    between atoms: _176  and  _179
REMARK   71  A    between atoms: _179  and  _180
REMARK   72  A    between atoms: _183  and  _185
REMARK   73  A    between atoms: _185  and  _186
REMARK   74  A    between atoms: _185  and  _188
REMARK   75  A    between atoms: _191  and  _193
REMARK   76  A    between atoms: _193  and  _194
REMARK   77  A    between atoms: _193  and  _196
REMARK   78  A    between atoms: _196  and  _197
REMARK   79  A    between atoms: _202  and  _204
REMARK   80  A    between atoms: _204  and  _205
REMARK   81  A    between atoms: _204  and  _207
REMARK   82  A    between atoms: _207  and  _208
REMARK   83  A    between atoms: _214  and  _216
REMARK   84  A    between atoms: _216  and  _217
REMARK   85  A    between atoms: _216  and  _219
REMARK   86  A    between atoms: _222  and  _224
REMARK   87  A    between atoms: _224  and  _225
REMARK   88  A    between atoms: _224  and  _227
REMARK   89  A    between atoms: _227  and  _228
REMARK   90  A    between atoms: _231  and  _233
REMARK   91  A    between atoms: _233  and  _234
REMARK   92  A    between atoms: _237  and  _239
REMARK   93  A    between atoms: _239  and  _240
REMARK   94  A    between atoms: _239  and  _242
REMARK   95  A    between atoms: _245  and  _247
REMARK   96  A    between atoms: _247  and  _248
REMARK   97  A    between atoms: _247  and  _250
REMARK   98  A    between atoms: _250  and  _251
REMARK   99  A    between atoms: _254  and  _256
REMARK  100  A    between atoms: _256  and  _257
REMARK  101  A    between atoms: _256  and  _259
REMARK  102  A    between atoms: _259  and  _260
REMARK  103  A    between atoms: _262  and  _264
REMARK  104  A    between atoms: _264  and  _265
REMARK  105  A    between atoms: _264  and  _267
REMARK  106  A    between atoms: _267  and  _268
REMARK  107  A    between atoms: _271  and  _273
REMARK  108  A    between atoms: _273  and  _274
REMARK  109  A    between atoms: _273  and  _276
REMARK  110  A    between atoms: _276  and  _277
REMARK  111  A    between atoms: _280  and  _282
REMARK  112  A    between atoms: _282  and  _283
REMARK  113  A    between atoms: _282  and  _285
REMARK  114  A    between atoms: _285  and  _286
REMARK  115  A    between atoms: _290  and  _291
REMARK  116  A    between atoms: _297  and  _298
REMARK  117  A    between atoms: _303  and  _305
REMARK  118  A    between atoms: _305  and  _306
REMARK  119  A    between atoms: _305  and  _308
REMARK  120  A    between atoms: _308  and  _309
REMARK  121  A    between atoms: _312  and  _314
REMARK  122  A    between atoms: _314  and  _315
REMARK  123  A    between atoms: _314  and  _317
REMARK  124  A    between atoms: _317  and  _318
REMARK  125  A    between atoms: _321  and  _323
REMARK  126  A    between atoms: _323  and  _324
REMARK  127  A    between atoms: _323  and  _326
REMARK  128  A    between atoms: _328  and  _330
REMARK  129  A    between atoms: _330  and  _331
REMARK  130  A    between atoms: _330  and  _333
REMARK  131  A    between atoms: _336  and  _338
REMARK  132  A    between atoms: _338  and  _339
REMARK  133  A    between atoms: _338  and  _341
REMARK  134  A    between atoms: _341  and  _342
REMARK  135  A    between atoms: _352  and  _354
REMARK  136  A    between atoms: _354  and  _355
REMARK  137  A    between atoms: _354  and  _357
REMARK  138  A    between atoms: _357  and  _358
REMARK  139  A    between atoms: _358  and  _359
REMARK  140  A    between atoms: _359  and  _360
REMARK                            x       y       z     vdW  Elec       q    Type
REMARK                         _______ _______ _______ _____ _____    ______ ____
ROOT
ATOM      1  CG  TRP A   1      12.154  -0.127  24.150  0.00  0.00    -0.002 A 
ATOM      2  CD1 TRP A   1      13.402   0.451  24.323  0.00  0.00    +0.068 A 
ATOM      3  NE1 TRP A   1      14.128   0.419  23.145  0.00  0.00    -0.352 N 
ATOM      4  HE1 TRP A   1      15.083   0.806  23.005  0.00  0.00    +0.166 HD
ATOM      5  CE2 TRP A   1      13.359  -0.219  22.185  0.00  0.00    +0.056 A 
ATOM      6  CZ2 TRP A   1      13.624  -0.464  20.829  0.00  0.00    +0.017 A 
ATOM      7  CH2 TRP A   1      12.646  -1.158  20.114  0.00  0.00    +0.001 A 
ATOM      8  CZ3 TRP A   1      11.397  -1.462  20.711  0.00  0.00    +0.000 A 
ATOM      9  CE3 TRP A   1      11.138  -1.182  22.001  0.00  0.00    +0.001 A 
ATOM     10  CD2 TRP A   1      12.124  -0.573  22.787  0.00  0.00    +0.013 A 
ENDROOT
BRANCH   1  11
ATOM     11  CB  TRP A   1      11.033  -0.281  25.112  0.00  0.00    +0.053 C 
BRANCH  11  12
ATOM     12  CA  TRP A   1      10.014   0.913  24.904  0.00  0.00    +0.137 C 
BRANCH  12  13
ATOM     13  N   TRP A   1      10.455   2.126  25.627  0.00  0.00    -0.239 NA
ATOM     14  H   TRP A   1      11.064   2.030  26.465  0.00  0.00    +0.142 HD
ENDBRANCH  12  13
BRANCH  12  15
ATOM     15  C   TRP A   1       8.653   0.511  25.404  0.00  0.00    +0.224 C 
ATOM     16  O   TRP A   1       8.429   0.503  26.613  0.00  0.00    -0.287 OA
ENDBRANCH  12  15
ENDBRANCH  11  12
ENDBRANCH   1  11
TORSDOF 4
REMARK  Name = ../refined-set-2016/4q8x/4q8x_pocket.pdb
REMARK  140 active torsions:
REMARK  status: ('A' for Active; 'I' for Inactive)
REMARK    1  A    between atoms: _1  and  _3
REMARK    2  A    between atoms: _3  and  _4
REMARK    3  A    between atoms: _3  and  _6
REMARK    4  A    between atoms: _6  and  _7
REMARK    5  A    between atoms: _17  and  _19
REMARK    6  A    between atoms: _19  and  _20
REMARK    7  A    between atoms: _19  and  _22
REMARK    8  A    between atoms: _22  and  _23
REMARK    9  A    between atoms: _28  and  _29
REMARK   10  A    between atoms: _31  and  _33
REMARK   11  A    between atoms: _33  and  _34
REMARK   12  A    between atoms: _33  and  _36
REMARK   13  A    between atoms: _36  and  _37
REMARK   14  A    between atoms: _47  and  _49
REMARK   15  A    between atoms: _49  and  _50
REMARK   16  A    between atoms: _49  and  _52
REMARK   17  A    between atoms: _52  and  _53
REMARK   18  A    between atoms: _55  and  _57
REMARK   19  A    between atoms: _57  and  _58
REMARK   20  A    between atoms: _57  and  _60
REMARK   21  A    between atoms: _60  and  _61
REMARK   22  A    between atoms: _66  and  _68
REMARK   23  A    between atoms: _68  and  _69
REMARK   24  A    between atoms: _68  and  _71
REMARK   25  A    between atoms: _71  and  _72
REMARK   26  A    between atoms: _77  and  _79
REMARK   27  A    between atoms: _79  and  _80
REMARK   28  A    between atoms: _79  and  _82
REMARK   29  A    between atoms: _82  and  _83
REMARK   30  A    between atoms: _86  and  _88
REMARK   31  A    between atoms: _88  and  _89
REMARK   32  A    between atoms: _88  and  _91
REMARK   33  A    between atoms: _91  and  _92
REMARK   34  A    between atoms: _92  and  _93
REMARK   35  A    between atoms: _98  and  _100
REMARK   36  A    between atoms: _100  and  _101
REMARK   37  A    between atoms: _100  and  _103
REMARK   38  A    between atoms: _103  and  _104
REMARK   39  A    between atoms: _110  and  _112
REMARK   40  A    between atoms: _112  and  _113
REMARK   41  A    between atoms: _112  and  _115
REMARK   42  A    between atoms: _115  and  _116
REMARK   43  A    between atoms: _120  and  ZN_369
REMARK   44  A    between atoms: _121  and  _123
REMARK   45  A    between atoms: _123  and  _124
REMARK   46  A    between atoms: _123  and  _126
REMARK   47  A    between atoms: _126  and  _127
REMARK   48  A    between atoms: _131  and  ZN_369
REMARK   49  A    between atoms: _132  and  _134
REMARK   50  A    between atoms: _134  and  _135
REMARK   51  A    between atoms: _134  and  _137
REMARK   52  A    between atoms: _137  and  _138
REMARK   53  A    between atoms: _138  and  _139
REMARK   54  A    between atoms: _142  and  _144
REMARK   55  A    between atoms: _144  and  _145
REMARK   56  A    between atoms: _144  and  _147
REMARK   57  A    between atoms: _147  and  _148
REMARK   58  A    between atoms: _153  and  _155
REMARK   59  A    between atoms: _155  and  _156
REMARK   60  A    between atoms: _155  and  _158
REMARK   61  A    between atoms: _158  and  _159
REMARK   62  A    between atoms: _159  and  _160
REMARK   63  A    between atoms: _163  and  _165
REMARK   64  A    between atoms: _165  and  _166
REMARK   65  A    between atoms: _165  and  _168
REMARK   66  A    between atoms: _168  and  _169
REMARK   67  A    between atoms: _170  and  ZN_369
REMARK   68  A    between atoms: _174  and  _176
REMARK   69  A    between atoms: _176  and  _177
REMARK   70  A    between atoms: _176  and  _179
REMARK   71  A    between atoms: _179  and  _180
REMARK   72  A    between atoms: _183  and  _185
REMARK   73  A    between atoms: _185  and  _186
REMARK   74  A    between atoms: _185  and  _188
REMARK   75  A    between atoms: _191  and  _193
REMARK   76  A    between atoms: _193  and  _194
REMARK   77  A    between atoms: _193  and  _196
REMARK   78  A    between atoms: _196  and  _197
REMARK   79  A    between atoms: _202  and  _204
REMARK   80  A    between atoms: _204  and  _205
REMARK   81  A    between atoms: _204  and  _207
REMARK   82  A    between atoms: _207  and  _208
REMARK   83  A    between atoms: _214  and  _216
REMARK   84  A    between atoms: _216  and  _217
REMARK   85  A    between atoms: _216  and  _219
REMARK   86  A    between atoms: _222  and  _224
REMARK   87  A    between atoms: _224  and  _225
REMARK   88  A    between atoms: _224  and  _227
REMARK   89  A    between atoms: _227  and  _228
REMARK   90  A    between atoms: _231  and  _233
REMARK   91  A    between atoms: _233  and  _234
REMARK   92  A    between atoms: _237  and  _239
REMARK   93  A    between atoms: _239  and  _240
REMARK   94  A    between atoms: _239  and  _242
REMARK   95  A    between atoms: _245  and  _247
REMARK   96  A    between atoms: _247  and  _248
REMARK   97  A    between atoms: _247  and  _250
REMARK   98  A    between atoms: _250  and  _251
REMARK   99  A    between atoms: _254  and  _256
REMARK  100  A    between atoms: _256  and  _257
REMARK  101  A    between atoms: _256  and  _259
REMARK  102  A    between atoms: _259  and  _260
REMARK  103  A    between atoms: _262  and  _264
REMARK  104  A    between atoms: _264  and  _265
REMARK  105  A    between atoms: _264  and  _267
REMARK  106  A    between atoms: _267  and  _268
REMARK  107  A    between atoms: _271  and  _273
REMARK  108  A    between atoms: _273  and  _274
REMARK  109  A    between atoms: _273  and  _276
REMARK  110  A    between atoms: _276  and  _277
REMARK  111  A    between atoms: _280  and  _282
REMARK  112  A    between atoms: _282  and  _283
REMARK  113  A    between atoms: _282  and  _285
REMARK  114  A    between atoms: _285  and  _286
REMARK  115  A    between atoms: _290  and  _291
REMARK  116  A    between atoms: _297  and  _298
REMARK  117  A    between atoms: _303  and  _305
REMARK  118  A    between atoms: _305  and  _306
REMARK  119  A    between atoms: _305  and  _308
REMARK  120  A    between atoms: _308  and  _309
REMARK  121  A    between atoms: _312  and  _314
REMARK  122  A    between atoms: _314  and  _315
REMARK  123  A    between atoms: _314  and  _317
REMARK  124  A    between atoms: _317  and  _318
REMARK  125  A    between atoms: _321  and  _323
REMARK  126  A    between atoms: _323  and  _324
REMARK  127  A    between atoms: _323  and  _326
REMARK  128  A    between atoms: _328  and  _330
REMARK  129  A    between atoms: _330  and  _331
REMARK  130  A    between atoms: _330  and  _333
REMARK  131  A    between atoms: _336  and  _338
REMARK  132  A    between atoms: _338  and  _339
REMARK  133  A    between atoms: _338  and  _341
REMARK  134  A    between atoms: _341  and  _342
REMARK  135  A    between atoms: _352  and  _354
REMARK  136  A    between atoms: _354  and  _355
REMARK  137  A    between atoms: _354  and  _357
REMARK  138  A    between atoms: _357  and  _358
REMARK  139  A    between atoms: _358  and  _359
REMARK  140  A    between atoms: _359  and  _360
REMARK                            x       y       z     vdW  Elec       q    Type
REMARK                         _______ _______ _______ _____ _____    ______ ____
ROOT
ATOM      1  NE  ARG A   1      23.182  -4.012  21.095  0.00  0.00    -0.265 N 
ATOM      2  CZ  ARG A   1      23.335  -2.991  21.953  0.00  0.00    +0.342 C 
ATOM      3  NH2 ARG A   1      24.559  -2.759  22.430  0.00  0.00    -0.292 N 
ATOM      4 HH21 ARG A   1      24.718  -1.977  23.097  0.00  0.00    +0.255 HD
ATOM      5 HH22 ARG A   1      25.355  -3.360  22.135  0.00  0.00    +0.255 HD
ATOM      6  NH1 ARG A   1      22.341  -2.192  22.324  0.00  0.00    -0.292 N 
ATOM      7 HH11 ARG A   1      22.520  -1.416  22.993  0.00  0.00    +0.255 HD
ATOM      8 HH12 ARG A   1      21.384  -2.342  21.946  0.00  0.00    +0.255 HD
ATOM      9  HE  ARG A   1      23.997  -4.634  20.922  0.00  0.00    +0.259 HD
ENDROOT
BRANCH   1  10
ATOM     10  CD  ARG A   1      21.923  -4.302  20.383  0.00  0.00    +0.174 C 
BRANCH  10  11
ATOM     11  CG  ARG A   1      22.026  -5.699  19.785  0.00  0.00    +0.045 C 
BRANCH  11  12
ATOM     12  CB  ARG A   1      20.920  -5.931  18.728  0.00  0.00    +0.029 C 
BRANCH  12  13
ATOM     13  CA  ARG A   1      20.839  -7.379  18.263  0.00  0.00    +0.133 C 
BRANCH  13  14
ATOM     14  N   ARG A   1      19.920  -7.451  17.128  0.00  0.00    -0.239 NA
ATOM     15  H   ARG A   1      19.166  -6.740  17.042  0.00  0.00    +0.142 HD
ENDBRANCH  13  14
BRANCH  13  16
ATOM     16  C   ARG A   1      20.363  -8.264  19.413  0.00  0.00    +0.224 C 
ATOM     17  O   ARG A   1      19.151  -8.295  19.711  0.00  0.00    -0.287 OA
ENDBRANCH  13  16
ENDBRANCH  12  13
ENDBRANCH  11  12
ENDBRANCH  10  11
ENDBRANCH   1  10
TORSDOF 6
REMARK  Name = ../refined-set-2016/4q8x/4q8x_pocket.pdb
REMARK  140 active torsions:
REMARK  status: ('A' for Active; 'I' for Inactive)
REMARK    1  A    between atoms: _1  and  _3
REMARK    2  A    between atoms: _3  and  _4
REMARK    3  A    between atoms: _3  and  _6
REMARK    4  A    between atoms: _6  and  _7
REMARK    5  A    between atoms: _17  and  _19
REMARK    6  A    between atoms: _19  and  _20
REMARK    7  A    between atoms: _19  and  _22
REMARK    8  A    between atoms: _22  and  _23
REMARK    9  A    between atoms: _28  and  _29
REMARK   10  A    between atoms: _31  and  _33
REMARK   11  A    between atoms: _33  and  _34
REMARK   12  A    between atoms: _33  and  _36
REMARK   13  A    between atoms: _36  and  _37
REMARK   14  A    between atoms: _47  and  _49
REMARK   15  A    between atoms: _49  and  _50
REMARK   16  A    between atoms: _49  and  _52
REMARK   17  A    between atoms: _52  and  _53
REMARK   18  A    between atoms: _55  and  _57
REMARK   19  A    between atoms: _57  and  _58
REMARK   20  A    between atoms: _57  and  _60
REMARK   21  A    between atoms: _60  and  _61
REMARK   22  A    between atoms: _66  and  _68
REMARK   23  A    between atoms: _68  and  _69
REMARK   24  A    between atoms: _68  and  _71
REMARK   25  A    between atoms: _71  and  _72
REMARK   26  A    between atoms: _77  and  _79
REMARK   27  A    between atoms: _79  and  _80
REMARK   28  A    between atoms: _79  and  _82
REMARK   29  A    between atoms: _82  and  _83
REMARK   30  A    between atoms: _86  and  _88
REMARK   31  A    between atoms: _88  and  _89
REMARK   32  A    between atoms: _88  and  _91
REMARK   33  A    between atoms: _91  and  _92
REMARK   34  A    between atoms: _92  and  _93
REMARK   35  A    between atoms: _98  and  _100
REMARK   36  A    between atoms: _100  and  _101
REMARK   37  A    between atoms: _100  and  _103
REMARK   38  A    between atoms: _103  and  _104
REMARK   39  A    between atoms: _110  and  _112
REMARK   40  A    between atoms: _112  and  _113
REMARK   41  A    between atoms: _112  and  _115
REMARK   42  A    between atoms: _115  and  _116
REMARK   43  A    between atoms: _120  and  ZN_369
REMARK   44  A    between atoms: _121  and  _123
REMARK   45  A    between atoms: _123  and  _124
REMARK   46  A    between atoms: _123  and  _126
REMARK   47  A    between atoms: _126  and  _127
REMARK   48  A    between atoms: _131  and  ZN_369
REMARK   49  A    between atoms: _132  and  _134
REMARK   50  A    between atoms: _134  and  _135
REMARK   51  A    between atoms: _134  and  _137
REMARK   52  A    between atoms: _137  and  _138
REMARK   53  A    between atoms: _138  and  _139
REMARK   54  A    between atoms: _142  and  _144
REMARK   55  A    between atoms: _144  and  _145
REMARK   56  A    between atoms: _144  and  _147
REMARK   57  A    between atoms: _147  and  _148
REMARK   58  A    between atoms: _153  and  _155
REMARK   59  A    between atoms: _155  and  _156
REMARK   60  A    between atoms: _155  and  _158
REMARK   61  A    between atoms: _158  and  _159
REMARK   62  A    between atoms: _159  and  _160
REMARK   63  A    between atoms: _163  and  _165
REMARK   64  A    between atoms: _165  and  _166
REMARK   65  A    between atoms: _165  and  _168
REMARK   66  A    between atoms: _168  and  _169
REMARK   67  A    between atoms: _170  and  ZN_369
REMARK   68  A    between atoms: _174  and  _176
REMARK   69  A    between atoms: _176  and  _177
REMARK   70  A    between atoms: _176  and  _179
REMARK   71  A    between atoms: _179  and  _180
REMARK   72  A    between atoms: _183  and  _185
REMARK   73  A    between atoms: _185  and  _186
REMARK   74  A    between atoms: _185  and  _188
REMARK   75  A    between atoms: _191  and  _193
REMARK   76  A    between atoms: _193  and  _194
REMARK   77  A    between atoms: _193  and  _196
REMARK   78  A    between atoms: _196  and  _197
REMARK   79  A    between atoms: _202  and  _204
REMARK   80  A    between atoms: _204  and  _205
REMARK   81  A    between atoms: _204  and  _207
REMARK   82  A    between atoms: _207  and  _208
REMARK   83  A    between atoms: _214  and  _216
REMARK   84  A    between atoms: _216  and  _217
REMARK   85  A    between atoms: _216  and  _219
REMARK   86  A    between atoms: _222  and  _224
REMARK   87  A    between atoms: _224  and  _225
REMARK   88  A    between atoms: _224  and  _227
REMARK   89  A    between atoms: _227  and  _228
REMARK   90  A    between atoms: _231  and  _233
REMARK   91  A    between atoms: _233  and  _234
REMARK   92  A    between atoms: _237  and  _239
REMARK   93  A    between atoms: _239  and  _240
REMARK   94  A    between atoms: _239  and  _242
REMARK   95  A    between atoms: _245  and  _247
REMARK   96  A    between atoms: _247  and  _248
REMARK   97  A    between atoms: _247  and  _250
REMARK   98  A    between atoms: _250  and  _251
REMARK   99  A    between atoms: _254  and  _256
REMARK  100  A    between atoms: _256  and  _257
REMARK  101  A    between atoms: _256  and  _259
REMARK  102  A    between atoms: _259  and  _260
REMARK  103  A    between atoms: _262  and  _264
REMARK  104  A    between atoms: _264  and  _265
REMARK  105  A    between atoms: _264  and  _267
REMARK  106  A    between atoms: _267  and  _268
REMARK  107  A    between atoms: _271  and  _273
REMARK  108  A    between atoms: _273  and  _274
REMARK  109  A    between atoms: _273  and  _276
REMARK  110  A    between atoms: _276  and  _277
REMARK  111  A    between atoms: _280  and  _282
REMARK  112  A    between atoms: _282  and  _283
REMARK  113  A    between atoms: _282  and  _285
REMARK  114  A    between atoms: _285  and  _286
REMARK  115  A    between atoms: _290  and  _291
REMARK  116  A    between atoms: _297  and  _298
REMARK  117  A    between atoms: _303  and  _305
REMARK  118  A    between atoms: _305  and  _306
REMARK  119  A    between atoms: _305  and  _308
REMARK  120  A    between atoms: _308  and  _309
REMARK  121  A    between atoms: _312  and  _314
REMARK  122  A    between atoms: _314  and  _315
REMARK  123  A    between atoms: _314  and  _317
REMARK  124  A    between atoms: _317  and  _318
REMARK  125  A    between atoms: _321  and  _323
REMARK  126  A    between atoms: _323  and  _324
REMARK  127  A    between atoms: _323  and  _326
REMARK  128  A    between atoms: _328  and  _330
REMARK  129  A    between atoms: _330  and  _331
REMARK  130  A    between atoms: _330  and  _333
REMARK  131  A    between atoms: _336  and  _338
REMARK  132  A    between atoms: _338  and  _339
REMARK  133  A    between atoms: _338  and  _341
REMARK  134  A    between atoms: _341  and  _342
REMARK  135  A    between atoms: _352  and  _354
REMARK  136  A    between atoms: _354  and  _355
REMARK  137  A    between atoms: _354  and  _357
REMARK  138  A    between atoms: _357  and  _358
REMARK  139  A    between atoms: _358  and  _359
REMARK  140  A    between atoms: _359  and  _360
REMARK                            x       y       z     vdW  Elec       q    Type
REMARK                         _______ _______ _______ _____ _____    ______ ____
ROOT
ATOM      1  O   HOH     1      19.684  -4.301  15.662  0.00  0.00    +0.000 OA
ENDROOT
TORSDOF 0
REMARK  Name = ../refined-set-2016/4q8x/4q8x_pocket.pdb
REMARK  140 active torsions:
REMARK  status: ('A' for Active; 'I' for Inactive)
REMARK    1  A    between atoms: _1  and  _3
REMARK    2  A    between atoms: _3  and  _4
REMARK    3  A    between atoms: _3  and  _6
REMARK    4  A    between atoms: _6  and  _7
REMARK    5  A    between atoms: _17  and  _19
REMARK    6  A    between atoms: _19  and  _20
REMARK    7  A    between atoms: _19  and  _22
REMARK    8  A    between atoms: _22  and  _23
REMARK    9  A    between atoms: _28  and  _29
REMARK   10  A    between atoms: _31  and  _33
REMARK   11  A    between atoms: _33  and  _34
REMARK   12  A    between atoms: _33  and  _36
REMARK   13  A    between atoms: _36  and  _37
REMARK   14  A    between atoms: _47  and  _49
REMARK   15  A    between atoms: _49  and  _50
REMARK   16  A    between atoms: _49  and  _52
REMARK   17  A    between atoms: _52  and  _53
REMARK   18  A    between atoms: _55  and  _57
REMARK   19  A    between atoms: _57  and  _58
REMARK   20  A    between atoms: _57  and  _60
REMARK   21  A    between atoms: _60  and  _61
REMARK   22  A    between atoms: _66  and  _68
REMARK   23  A    between atoms: _68  and  _69
REMARK   24  A    between atoms: _68  and  _71
REMARK   25  A    between atoms: _71  and  _72
REMARK   26  A    between atoms: _77  and  _79
REMARK   27  A    between atoms: _79  and  _80
REMARK   28  A    between atoms: _79  and  _82
REMARK   29  A    between atoms: _82  and  _83
REMARK   30  A    between atoms: _86  and  _88
REMARK   31  A    between atoms: _88  and  _89
REMARK   32  A    between atoms: _88  and  _91
REMARK   33  A    between atoms: _91  and  _92
REMARK   34  A    between atoms: _92  and  _93
REMARK   35  A    between atoms: _98  and  _100
REMARK   36  A    between atoms: _100  and  _101
REMARK   37  A    between atoms: _100  and  _103
REMARK   38  A    between atoms: _103  and  _104
REMARK   39  A    between atoms: _110  and  _112
REMARK   40  A    between atoms: _112  and  _113
REMARK   41  A    between atoms: _112  and  _115
REMARK   42  A    between atoms: _115  and  _116
REMARK   43  A    between atoms: _120  and  ZN_369
REMARK   44  A    between atoms: _121  and  _123
REMARK   45  A    between atoms: _123  and  _124
REMARK   46  A    between atoms: _123  and  _126
REMARK   47  A    between atoms: _126  and  _127
REMARK   48  A    between atoms: _131  and  ZN_369
REMARK   49  A    between atoms: _132  and  _134
REMARK   50  A    between atoms: _134  and  _135
REMARK   51  A    between atoms: _134  and  _137
REMARK   52  A    between atoms: _137  and  _138
REMARK   53  A    between atoms: _138  and  _139
REMARK   54  A    between atoms: _142  and  _144
REMARK   55  A    between atoms: _144  and  _145
REMARK   56  A    between atoms: _144  and  _147
REMARK   57  A    between atoms: _147  and  _148
REMARK   58  A    between atoms: _153  and  _155
REMARK   59  A    between atoms: _155  and  _156
REMARK   60  A    between atoms: _155  and  _158
REMARK   61  A    between atoms: _158  and  _159
REMARK   62  A    between atoms: _159  and  _160
REMARK   63  A    between atoms: _163  and  _165
REMARK   64  A    between atoms: _165  and  _166
REMARK   65  A    between atoms: _165  and  _168
REMARK   66  A    between atoms: _168  and  _169
REMARK   67  A    between atoms: _170  and  ZN_369
REMARK   68  A    between atoms: _174  and  _176
REMARK   69  A    between atoms: _176  and  _177
REMARK   70  A    between atoms: _176  and  _179
REMARK   71  A    between atoms: _179  and  _180
REMARK   72  A    between atoms: _183  and  _185
REMARK   73  A    between atoms: _185  and  _186
REMARK   74  A    between atoms: _185  and  _188
REMARK   75  A    between atoms: _191  and  _193
REMARK   76  A    between atoms: _193  and  _194
REMARK   77  A    between atoms: _193  and  _196
REMARK   78  A    between atoms: _196  and  _197
REMARK   79  A    between atoms: _202  and  _204
REMARK   80  A    between atoms: _204  and  _205
REMARK   81  A    between atoms: _204  and  _207
REMARK   82  A    between atoms: _207  and  _208
REMARK   83  A    between atoms: _214  and  _216
REMARK   84  A    between atoms: _216  and  _217
REMARK   85  A    between atoms: _216  and  _219
REMARK   86  A    between atoms: _222  and  _224
REMARK   87  A    between atoms: _224  and  _225
REMARK   88  A    between atoms: _224  and  _227
REMARK   89  A    between atoms: _227  and  _228
REMARK   90  A    between atoms: _231  and  _233
REMARK   91  A    between atoms: _233  and  _234
REMARK   92  A    between atoms: _237  and  _239
REMARK   93  A    between atoms: _239  and  _240
REMARK   94  A    between atoms: _239  and  _242
REMARK   95  A    between atoms: _245  and  _247
REMARK   96  A    between atoms: _247  and  _248
REMARK   97  A    between atoms: _247  and  _250
REMARK   98  A    between atoms: _250  and  _251
REMARK   99  A    between atoms: _254  and  _256
REMARK  100  A    between atoms: _256  and  _257
REMARK  101  A    between atoms: _256  and  _259
REMARK  102  A    between atoms: _259  and  _260
REMARK  103  A    between atoms: _262  and  _264
REMARK  104  A    between atoms: _264  and  _265
REMARK  105  A    between atoms: _264  and  _267
REMARK  106  A    between atoms: _267  and  _268
REMARK  107  A    between atoms: _271  and  _273
REMARK  108  A    between atoms: _273  and  _274
REMARK  109  A    between atoms: _273  and  _276
REMARK  110  A    between atoms: _276  and  _277
REMARK  111  A    between atoms: _280  and  _282
REMARK  112  A    between atoms: _282  and  _283
REMARK  113  A    between atoms: _282  and  _285
REMARK  114  A    between atoms: _285  and  _286
REMARK  115  A    between atoms: _290  and  _291
REMARK  116  A    between atoms: _297  and  _298
REMARK  117  A    between atoms: _303  and  _305
REMARK  118  A    between atoms: _305  and  _306
REMARK  119  A    between atoms: _305  and  _308
REMARK  120  A    between atoms: _308  and  _309
REMARK  121  A    between atoms: _312  and  _314
REMARK  122  A    between atoms: _314  and  _315
REMARK  123  A    between atoms: _314  and  _317
REMARK  124  A    between atoms: _317  and  _318
REMARK  125  A    between atoms: _321  and  _323
REMARK  126  A    between atoms: _323  and  _324
REMARK  127  A    between atoms: _323  and  _326
REMARK  128  A    between atoms: _328  and  _330
REMARK  129  A    between atoms: _330  and  _331
REMARK  130  A    between atoms: _330  and  _333
REMARK  131  A    between atoms: _336  and  _338
REMARK  132  A    between atoms: _338  and  _339
REMARK  133  A    between atoms: _338  and  _341
REMARK  134  A    between atoms: _341  and  _342
REMARK  135  A    between atoms: _352  and  _354
REMARK  136  A    between atoms: _354  and  _355
REMARK  137  A    between atoms: _354  and  _357
REMARK  138  A    between atoms: _357  and  _358
REMARK  139  A    between atoms: _358  and  _359
REMARK  140  A    between atoms: _359  and  _360
REMARK                            x       y       z     vdW  Elec       q    Type
REMARK                         _______ _______ _______ _____ _____    ______ ____
ROOT
ATOM      1  O   HOH     1      18.533  -3.514  11.325  0.00  0.00    +0.000 OA
ENDROOT
TORSDOF 0
REMARK  Name = ../refined-set-2016/4q8x/4q8x_pocket.pdb
REMARK  140 active torsions:
REMARK  status: ('A' for Active; 'I' for Inactive)
REMARK    1  A    between atoms: _1  and  _3
REMARK    2  A    between atoms: _3  and  _4
REMARK    3  A    between atoms: _3  and  _6
REMARK    4  A    between atoms: _6  and  _7
REMARK    5  A    between atoms: _17  and  _19
REMARK    6  A    between atoms: _19  and  _20
REMARK    7  A    between atoms: _19  and  _22
REMARK    8  A    between atoms: _22  and  _23
REMARK    9  A    between atoms: _28  and  _29
REMARK   10  A    between atoms: _31  and  _33
REMARK   11  A    between atoms: _33  and  _34
REMARK   12  A    between atoms: _33  and  _36
REMARK   13  A    between atoms: _36  and  _37
REMARK   14  A    between atoms: _47  and  _49
REMARK   15  A    between atoms: _49  and  _50
REMARK   16  A    between atoms: _49  and  _52
REMARK   17  A    between atoms: _52  and  _53
REMARK   18  A    between atoms: _55  and  _57
REMARK   19  A    between atoms: _57  and  _58
REMARK   20  A    between atoms: _57  and  _60
REMARK   21  A    between atoms: _60  and  _61
REMARK   22  A    between atoms: _66  and  _68
REMARK   23  A    between atoms: _68  and  _69
REMARK   24  A    between atoms: _68  and  _71
REMARK   25  A    between atoms: _71  and  _72
REMARK   26  A    between atoms: _77  and  _79
REMARK   27  A    between atoms: _79  and  _80
REMARK   28  A    between atoms: _79  and  _82
REMARK   29  A    between atoms: _82  and  _83
REMARK   30  A    between atoms: _86  and  _88
REMARK   31  A    between atoms: _88  and  _89
REMARK   32  A    between atoms: _88  and  _91
REMARK   33  A    between atoms: _91  and  _92
REMARK   34  A    between atoms: _92  and  _93
REMARK   35  A    between atoms: _98  and  _100
REMARK   36  A    between atoms: _100  and  _101
REMARK   37  A    between atoms: _100  and  _103
REMARK   38  A    between atoms: _103  and  _104
REMARK   39  A    between atoms: _110  and  _112
REMARK   40  A    between atoms: _112  and  _113
REMARK   41  A    between atoms: _112  and  _115
REMARK   42  A    between atoms: _115  and  _116
REMARK   43  A    between atoms: _120  and  ZN_369
REMARK   44  A    between atoms: _121  and  _123
REMARK   45  A    between atoms: _123  and  _124
REMARK   46  A    between atoms: _123  and  _126
REMARK   47  A    between atoms: _126  and  _127
REMARK   48  A    between atoms: _131  and  ZN_369
REMARK   49  A    between atoms: _132  and  _134
REMARK   50  A    between atoms: _134  and  _135
REMARK   51  A    between atoms: _134  and  _137
REMARK   52  A    between atoms: _137  and  _138
REMARK   53  A    between atoms: _138  and  _139
REMARK   54  A    between atoms: _142  and  _144
REMARK   55  A    between atoms: _144  and  _145
REMARK   56  A    between atoms: _144  and  _147
REMARK   57  A    between atoms: _147  and  _148
REMARK   58  A    between atoms: _153  and  _155
REMARK   59  A    between atoms: _155  and  _156
REMARK   60  A    between atoms: _155  and  _158
REMARK   61  A    between atoms: _158  and  _159
REMARK   62  A    between atoms: _159  and  _160
REMARK   63  A    between atoms: _163  and  _165
REMARK   64  A    between atoms: _165  and  _166
REMARK   65  A    between atoms: _165  and  _168
REMARK   66  A    between atoms: _168  and  _169
REMARK   67  A    between atoms: _170  and  ZN_369
REMARK   68  A    between atoms: _174  and  _176
REMARK   69  A    between atoms: _176  and  _177
REMARK   70  A    between atoms: _176  and  _179
REMARK   71  A    between atoms: _179  and  _180
REMARK   72  A    between atoms: _183  and  _185
REMARK   73  A    between atoms: _185  and  _186
REMARK   74  A    between atoms: _185  and  _188
REMARK   75  A    between atoms: _191  and  _193
REMARK   76  A    between atoms: _193  and  _194
REMARK   77  A    between atoms: _193  and  _196
REMARK   78  A    between atoms: _196  and  _197
REMARK   79  A    between atoms: _202  and  _204
REMARK   80  A    between atoms: _204  and  _205
REMARK   81  A    between atoms: _204  and  _207
REMARK   82  A    between atoms: _207  and  _208
REMARK   83  A    between atoms: _214  and  _216
REMARK   84  A    between atoms: _216  and  _217
REMARK   85  A    between atoms: _216  and  _219
REMARK   86  A    between atoms: _222  and  _224
REMARK   87  A    between atoms: _224  and  _225
REMARK   88  A    between atoms: _224  and  _227
REMARK   89  A    between atoms: _227  and  _228
REMARK   90  A    between atoms: _231  and  _233
REMARK   91  A    between atoms: _233  and  _234
REMARK   92  A    between atoms: _237  and  _239
REMARK   93  A    between atoms: _239  and  _240
REMARK   94  A    between atoms: _239  and  _242
REMARK   95  A    between atoms: _245  and  _247
REMARK   96  A    between atoms: _247  and  _248
REMARK   97  A    between atoms: _247  and  _250
REMARK   98  A    between atoms: _250  and  _251
REMARK   99  A    between atoms: _254  and  _256
REMARK  100  A    between atoms: _256  and  _257
REMARK  101  A    between atoms: _256  and  _259
REMARK  102  A    between atoms: _259  and  _260
REMARK  103  A    between atoms: _262  and  _264
REMARK  104  A    between atoms: _264  and  _265
REMARK  105  A    between atoms: _264  and  _267
REMARK  106  A    between atoms: _267  and  _268
REMARK  107  A    between atoms: _271  and  _273
REMARK  108  A    between atoms: _273  and  _274
REMARK  109  A    between atoms: _273  and  _276
REMARK  110  A    between atoms: _276  and  _277
REMARK  111  A    between atoms: _280  and  _282
REMARK  112  A    between atoms: _282  and  _283
REMARK  113  A    between atoms: _282  and  _285
REMARK  114  A    between atoms: _285  and  _286
REMARK  115  A    between atoms: _290  and  _291
REMARK  116  A    between atoms: _297  and  _298
REMARK  117  A    between atoms: _303  and  _305
REMARK  118  A    between atoms: _305  and  _306
REMARK  119  A    between atoms: _305  and  _308
REMARK  120  A    between atoms: _308  and  _309
REMARK  121  A    between atoms: _312  and  _314
REMARK  122  A    between atoms: _314  and  _315
REMARK  123  A    between atoms: _314  and  _317
REMARK  124  A    between atoms: _317  and  _318
REMARK  125  A    between atoms: _321  and  _323
REMARK  126  A    between atoms: _323  and  _324
REMARK  127  A    between atoms: _323  and  _326
REMARK  128  A    between atoms: _328  and  _330
REMARK  129  A    between atoms: _330  and  _331
REMARK  130  A    between atoms: _330  and  _333
REMARK  131  A    between atoms: _336  and  _338
REMARK  132  A    between atoms: _338  and  _339
REMARK  133  A    between atoms: _338  and  _341
REMARK  134  A    between atoms: _341  and  _342
REMARK  135  A    between atoms: _352  and  _354
REMARK  136  A    between atoms: _354  and  _355
REMARK  137  A    between atoms: _354  and  _357
REMARK  138  A    between atoms: _357  and  _358
REMARK  139  A    between atoms: _358  and  _359
REMARK  140  A    between atoms: _359  and  _360
REMARK                            x       y       z     vdW  Elec       q    Type
REMARK                         _______ _______ _______ _____ _____    ______ ____
ROOT
ATOM      1  O   HOH     1      15.915   0.406   9.978  0.00  0.00    +0.000 OA
ENDROOT
TORSDOF 0
REMARK  Name = ../refined-set-2016/4q8x/4q8x_pocket.pdb
REMARK  140 active torsions:
REMARK  status: ('A' for Active; 'I' for Inactive)
REMARK    1  A    between atoms: _1  and  _3
REMARK    2  A    between atoms: _3  and  _4
REMARK    3  A    between atoms: _3  and  _6
REMARK    4  A    between atoms: _6  and  _7
REMARK    5  A    between atoms: _17  and  _19
REMARK    6  A    between atoms: _19  and  _20
REMARK    7  A    between atoms: _19  and  _22
REMARK    8  A    between atoms: _22  and  _23
REMARK    9  A    between atoms: _28  and  _29
REMARK   10  A    between atoms: _31  and  _33
REMARK   11  A    between atoms: _33  and  _34
REMARK   12  A    between atoms: _33  and  _36
REMARK   13  A    between atoms: _36  and  _37
REMARK   14  A    between atoms: _47  and  _49
REMARK   15  A    between atoms: _49  and  _50
REMARK   16  A    between atoms: _49  and  _52
REMARK   17  A    between atoms: _52  and  _53
REMARK   18  A    between atoms: _55  and  _57
REMARK   19  A    between atoms: _57  and  _58
REMARK   20  A    between atoms: _57  and  _60
REMARK   21  A    between atoms: _60  and  _61
REMARK   22  A    between atoms: _66  and  _68
REMARK   23  A    between atoms: _68  and  _69
REMARK   24  A    between atoms: _68  and  _71
REMARK   25  A    between atoms: _71  and  _72
REMARK   26  A    between atoms: _77  and  _79
REMARK   27  A    between atoms: _79  and  _80
REMARK   28  A    between atoms: _79  and  _82
REMARK   29  A    between atoms: _82  and  _83
REMARK   30  A    between atoms: _86  and  _88
REMARK   31  A    between atoms: _88  and  _89
REMARK   32  A    between atoms: _88  and  _91
REMARK   33  A    between atoms: _91  and  _92
REMARK   34  A    between atoms: _92  and  _93
REMARK   35  A    between atoms: _98  and  _100
REMARK   36  A    between atoms: _100  and  _101
REMARK   37  A    between atoms: _100  and  _103
REMARK   38  A    between atoms: _103  and  _104
REMARK   39  A    between atoms: _110  and  _112
REMARK   40  A    between atoms: _112  and  _113
REMARK   41  A    between atoms: _112  and  _115
REMARK   42  A    between atoms: _115  and  _116
REMARK   43  A    between atoms: _120  and  ZN_369
REMARK   44  A    between atoms: _121  and  _123
REMARK   45  A    between atoms: _123  and  _124
REMARK   46  A    between atoms: _123  and  _126
REMARK   47  A    between atoms: _126  and  _127
REMARK   48  A    between atoms: _131  and  ZN_369
REMARK   49  A    between atoms: _132  and  _134
REMARK   50  A    between atoms: _134  and  _135
REMARK   51  A    between atoms: _134  and  _137
REMARK   52  A    between atoms: _137  and  _138
REMARK   53  A    between atoms: _138  and  _139
REMARK   54  A    between atoms: _142  and  _144
REMARK   55  A    between atoms: _144  and  _145
REMARK   56  A    between atoms: _144  and  _147
REMARK   57  A    between atoms: _147  and  _148
REMARK   58  A    between atoms: _153  and  _155
REMARK   59  A    between atoms: _155  and  _156
REMARK   60  A    between atoms: _155  and  _158
REMARK   61  A    between atoms: _158  and  _159
REMARK   62  A    between atoms: _159  and  _160
REMARK   63  A    between atoms: _163  and  _165
REMARK   64  A    between atoms: _165  and  _166
REMARK   65  A    between atoms: _165  and  _168
REMARK   66  A    between atoms: _168  and  _169
REMARK   67  A    between atoms: _170  and  ZN_369
REMARK   68  A    between atoms: _174  and  _176
REMARK   69  A    between atoms: _176  and  _177
REMARK   70  A    between atoms: _176  and  _179
REMARK   71  A    between atoms: _179  and  _180
REMARK   72  A    between atoms: _183  and  _185
REMARK   73  A    between atoms: _185  and  _186
REMARK   74  A    between atoms: _185  and  _188
REMARK   75  A    between atoms: _191  and  _193
REMARK   76  A    between atoms: _193  and  _194
REMARK   77  A    between atoms: _193  and  _196
REMARK   78  A    between atoms: _196  and  _197
REMARK   79  A    between atoms: _202  and  _204
REMARK   80  A    between atoms: _204  and  _205
REMARK   81  A    between atoms: _204  and  _207
REMARK   82  A    between atoms: _207  and  _208
REMARK   83  A    between atoms: _214  and  _216
REMARK   84  A    between atoms: _216  and  _217
REMARK   85  A    between atoms: _216  and  _219
REMARK   86  A    between atoms: _222  and  _224
REMARK   87  A    between atoms: _224  and  _225
REMARK   88  A    between atoms: _224  and  _227
REMARK   89  A    between atoms: _227  and  _228
REMARK   90  A    between atoms: _231  and  _233
REMARK   91  A    between atoms: _233  and  _234
REMARK   92  A    between atoms: _237  and  _239
REMARK   93  A    between atoms: _239  and  _240
REMARK   94  A    between atoms: _239  and  _242
REMARK   95  A    between atoms: _245  and  _247
REMARK   96  A    between atoms: _247  and  _248
REMARK   97  A    between atoms: _247  and  _250
REMARK   98  A    between atoms: _250  and  _251
REMARK   99  A    between atoms: _254  and  _256
REMARK  100  A    between atoms: _256  and  _257
REMARK  101  A    between atoms: _256  and  _259
REMARK  102  A    between atoms: _259  and  _260
REMARK  103  A    between atoms: _262  and  _264
REMARK  104  A    between atoms: _264  and  _265
REMARK  105  A    between atoms: _264  and  _267
REMARK  106  A    between atoms: _267  and  _268
REMARK  107  A    between atoms: _271  and  _273
REMARK  108  A    between atoms: _273  and  _274
REMARK  109  A    between atoms: _273  and  _276
REMARK  110  A    between atoms: _276  and  _277
REMARK  111  A    between atoms: _280  and  _282
REMARK  112  A    between atoms: _282  and  _283
REMARK  113  A    between atoms: _282  and  _285
REMARK  114  A    between atoms: _285  and  _286
REMARK  115  A    between atoms: _290  and  _291
REMARK  116  A    between atoms: _297  and  _298
REMARK  117  A    between atoms: _303  and  _305
REMARK  118  A    between atoms: _305  and  _306
REMARK  119  A    between atoms: _305  and  _308
REMARK  120  A    between atoms: _308  and  _309
REMARK  121  A    between atoms: _312  and  _314
REMARK  122  A    between atoms: _314  and  _315
REMARK  123  A    between atoms: _314  and  _317
REMARK  124  A    between atoms: _317  and  _318
REMARK  125  A    between atoms: _321  and  _323
REMARK  126  A    between atoms: _323  and  _324
REMARK  127  A    between atoms: _323  and  _326
REMARK  128  A    between atoms: _328  and  _330
REMARK  129  A    between atoms: _330  and  _331
REMARK  130  A    between atoms: _330  and  _333
REMARK  131  A    between atoms: _336  and  _338
REMARK  132  A    between atoms: _338  and  _339
REMARK  133  A    between atoms: _338  and  _341
REMARK  134  A    between atoms: _341  and  _342
REMARK  135  A    between atoms: _352  and  _354
REMARK  136  A    between atoms: _354  and  _355
REMARK  137  A    between atoms: _354  and  _357
REMARK  138  A    between atoms: _357  and  _358
REMARK  139  A    between atoms: _358  and  _359
REMARK  140  A    between atoms: _359  and  _360
REMARK                            x       y       z     vdW  Elec       q    Type
REMARK                         _______ _______ _______ _____ _____    ______ ____
ROOT
ATOM      1  O   HOH     1      16.851  -1.012  11.849  0.00  0.00    +0.000 OA
ENDROOT
TORSDOF 0
REMARK  Name = ../refined-set-2016/4q8x/4q8x_pocket.pdb
REMARK  140 active torsions:
REMARK  status: ('A' for Active; 'I' for Inactive)
REMARK    1  A    between atoms: _1  and  _3
REMARK    2  A    between atoms: _3  and  _4
REMARK    3  A    between atoms: _3  and  _6
REMARK    4  A    between atoms: _6  and  _7
REMARK    5  A    between atoms: _17  and  _19
REMARK    6  A    between atoms: _19  and  _20
REMARK    7  A    between atoms: _19  and  _22
REMARK    8  A    between atoms: _22  and  _23
REMARK    9  A    between atoms: _28  and  _29
REMARK   10  A    between atoms: _31  and  _33
REMARK   11  A    between atoms: _33  and  _34
REMARK   12  A    between atoms: _33  and  _36
REMARK   13  A    between atoms: _36  and  _37
REMARK   14  A    between atoms: _47  and  _49
REMARK   15  A    between atoms: _49  and  _50
REMARK   16  A    between atoms: _49  and  _52
REMARK   17  A    between atoms: _52  and  _53
REMARK   18  A    between atoms: _55  and  _57
REMARK   19  A    between atoms: _57  and  _58
REMARK   20  A    between atoms: _57  and  _60
REMARK   21  A    between atoms: _60  and  _61
REMARK   22  A    between atoms: _66  and  _68
REMARK   23  A    between atoms: _68  and  _69
REMARK   24  A    between atoms: _68  and  _71
REMARK   25  A    between atoms: _71  and  _72
REMARK   26  A    between atoms: _77  and  _79
REMARK   27  A    between atoms: _79  and  _80
REMARK   28  A    between atoms: _79  and  _82
REMARK   29  A    between atoms: _82  and  _83
REMARK   30  A    between atoms: _86  and  _88
REMARK   31  A    between atoms: _88  and  _89
REMARK   32  A    between atoms: _88  and  _91
REMARK   33  A    between atoms: _91  and  _92
REMARK   34  A    between atoms: _92  and  _93
REMARK   35  A    between atoms: _98  and  _100
REMARK   36  A    between atoms: _100  and  _101
REMARK   37  A    between atoms: _100  and  _103
REMARK   38  A    between atoms: _103  and  _104
REMARK   39  A    between atoms: _110  and  _112
REMARK   40  A    between atoms: _112  and  _113
REMARK   41  A    between atoms: _112  and  _115
REMARK   42  A    between atoms: _115  and  _116
REMARK   43  A    between atoms: _120  and  ZN_369
REMARK   44  A    between atoms: _121  and  _123
REMARK   45  A    between atoms: _123  and  _124
REMARK   46  A    between atoms: _123  and  _126
REMARK   47  A    between atoms: _126  and  _127
REMARK   48  A    between atoms: _131  and  ZN_369
REMARK   49  A    between atoms: _132  and  _134
REMARK   50  A    between atoms: _134  and  _135
REMARK   51  A    between atoms: _134  and  _137
REMARK   52  A    between atoms: _137  and  _138
REMARK   53  A    between atoms: _138  and  _139
REMARK   54  A    between atoms: _142  and  _144
REMARK   55  A    between atoms: _144  and  _145
REMARK   56  A    between atoms: _144  and  _147
REMARK   57  A    between atoms: _147  and  _148
REMARK   58  A    between atoms: _153  and  _155
REMARK   59  A    between atoms: _155  and  _156
REMARK   60  A    between atoms: _155  and  _158
REMARK   61  A    between atoms: _158  and  _159
REMARK   62  A    between atoms: _159  and  _160
REMARK   63  A    between atoms: _163  and  _165
REMARK   64  A    between atoms: _165  and  _166
REMARK   65  A    between atoms: _165  and  _168
REMARK   66  A    between atoms: _168  and  _169
REMARK   67  A    between atoms: _170  and  ZN_369
REMARK   68  A    between atoms: _174  and  _176
REMARK   69  A    between atoms: _176  and  _177
REMARK   70  A    between atoms: _176  and  _179
REMARK   71  A    between atoms: _179  and  _180
REMARK   72  A    between atoms: _183  and  _185
REMARK   73  A    between atoms: _185  and  _186
REMARK   74  A    between atoms: _185  and  _188
REMARK   75  A    between atoms: _191  and  _193
REMARK   76  A    between atoms: _193  and  _194
REMARK   77  A    between atoms: _193  and  _196
REMARK   78  A    between atoms: _196  and  _197
REMARK   79  A    between atoms: _202  and  _204
REMARK   80  A    between atoms: _204  and  _205
REMARK   81  A    between atoms: _204  and  _207
REMARK   82  A    between atoms: _207  and  _208
REMARK   83  A    between atoms: _214  and  _216
REMARK   84  A    between atoms: _216  and  _217
REMARK   85  A    between atoms: _216  and  _219
REMARK   86  A    between atoms: _222  and  _224
REMARK   87  A    between atoms: _224  and  _225
REMARK   88  A    between atoms: _224  and  _227
REMARK   89  A    between atoms: _227  and  _228
REMARK   90  A    between atoms: _231  and  _233
REMARK   91  A    between atoms: _233  and  _234
REMARK   92  A    between atoms: _237  and  _239
REMARK   93  A    between atoms: _239  and  _240
REMARK   94  A    between atoms: _239  and  _242
REMARK   95  A    between atoms: _245  and  _247
REMARK   96  A    between atoms: _247  and  _248
REMARK   97  A    between atoms: _247  and  _250
REMARK   98  A    between atoms: _250  and  _251
REMARK   99  A    between atoms: _254  and  _256
REMARK  100  A    between atoms: _256  and  _257
REMARK  101  A    between atoms: _256  and  _259
REMARK  102  A    between atoms: _259  and  _260
REMARK  103  A    between atoms: _262  and  _264
REMARK  104  A    between atoms: _264  and  _265
REMARK  105  A    between atoms: _264  and  _267
REMARK  106  A    between atoms: _267  and  _268
REMARK  107  A    between atoms: _271  and  _273
REMARK  108  A    between atoms: _273  and  _274
REMARK  109  A    between atoms: _273  and  _276
REMARK  110  A    between atoms: _276  and  _277
REMARK  111  A    between atoms: _280  and  _282
REMARK  112  A    between atoms: _282  and  _283
REMARK  113  A    between atoms: _282  and  _285
REMARK  114  A    between atoms: _285  and  _286
REMARK  115  A    between atoms: _290  and  _291
REMARK  116  A    between atoms: _297  and  _298
REMARK  117  A    between atoms: _303  and  _305
REMARK  118  A    between atoms: _305  and  _306
REMARK  119  A    between atoms: _305  and  _308
REMARK  120  A    between atoms: _308  and  _309
REMARK  121  A    between atoms: _312  and  _314
REMARK  122  A    between atoms: _314  and  _315
REMARK  123  A    between atoms: _314  and  _317
REMARK  124  A    between atoms: _317  and  _318
REMARK  125  A    between atoms: _321  and  _323
REMARK  126  A    between atoms: _323  and  _324
REMARK  127  A    between atoms: _323  and  _326
REMARK  128  A    between atoms: _328  and  _330
REMARK  129  A    between atoms: _330  and  _331
REMARK  130  A    between atoms: _330  and  _333
REMARK  131  A    between atoms: _336  and  _338
REMARK  132  A    between atoms: _338  and  _339
REMARK  133  A    between atoms: _338  and  _341
REMARK  134  A    between atoms: _341  and  _342
REMARK  135  A    between atoms: _352  and  _354
REMARK  136  A    between atoms: _354  and  _355
REMARK  137  A    between atoms: _354  and  _357
REMARK  138  A    between atoms: _357  and  _358
REMARK  139  A    between atoms: _358  and  _359
REMARK  140  A    between atoms: _359  and  _360
REMARK                            x       y       z     vdW  Elec       q    Type
REMARK                         _______ _______ _______ _____ _____    ______ ____
ROOT
ATOM      1  O   HOH     1      14.127   5.737   6.439  0.00  0.00    +0.000 OA
ENDROOT
TORSDOF 0
REMARK  Name = ../refined-set-2016/4q8x/4q8x_pocket.pdb
REMARK  140 active torsions:
REMARK  status: ('A' for Active; 'I' for Inactive)
REMARK    1  A    between atoms: _1  and  _3
REMARK    2  A    between atoms: _3  and  _4
REMARK    3  A    between atoms: _3  and  _6
REMARK    4  A    between atoms: _6  and  _7
REMARK    5  A    between atoms: _17  and  _19
REMARK    6  A    between atoms: _19  and  _20
REMARK    7  A    between atoms: _19  and  _22
REMARK    8  A    between atoms: _22  and  _23
REMARK    9  A    between atoms: _28  and  _29
REMARK   10  A    between atoms: _31  and  _33
REMARK   11  A    between atoms: _33  and  _34
REMARK   12  A    between atoms: _33  and  _36
REMARK   13  A    between atoms: _36  and  _37
REMARK   14  A    between atoms: _47  and  _49
REMARK   15  A    between atoms: _49  and  _50
REMARK   16  A    between atoms: _49  and  _52
REMARK   17  A    between atoms: _52  and  _53
REMARK   18  A    between atoms: _55  and  _57
REMARK   19  A    between atoms: _57  and  _58
REMARK   20  A    between atoms: _57  and  _60
REMARK   21  A    between atoms: _60  and  _61
REMARK   22  A    between atoms: _66  and  _68
REMARK   23  A    between atoms: _68  and  _69
REMARK   24  A    between atoms: _68  and  _71
REMARK   25  A    between atoms: _71  and  _72
REMARK   26  A    between atoms: _77  and  _79
REMARK   27  A    between atoms: _79  and  _80
REMARK   28  A    between atoms: _79  and  _82
REMARK   29  A    between atoms: _82  and  _83
REMARK   30  A    between atoms: _86  and  _88
REMARK   31  A    between atoms: _88  and  _89
REMARK   32  A    between atoms: _88  and  _91
REMARK   33  A    between atoms: _91  and  _92
REMARK   34  A    between atoms: _92  and  _93
REMARK   35  A    between atoms: _98  and  _100
REMARK   36  A    between atoms: _100  and  _101
REMARK   37  A    between atoms: _100  and  _103
REMARK   38  A    between atoms: _103  and  _104
REMARK   39  A    between atoms: _110  and  _112
REMARK   40  A    between atoms: _112  and  _113
REMARK   41  A    between atoms: _112  and  _115
REMARK   42  A    between atoms: _115  and  _116
REMARK   43  A    between atoms: _120  and  ZN_369
REMARK   44  A    between atoms: _121  and  _123
REMARK   45  A    between atoms: _123  and  _124
REMARK   46  A    between atoms: _123  and  _126
REMARK   47  A    between atoms: _126  and  _127
REMARK   48  A    between atoms: _131  and  ZN_369
REMARK   49  A    between atoms: _132  and  _134
REMARK   50  A    between atoms: _134  and  _135
REMARK   51  A    between atoms: _134  and  _137
REMARK   52  A    between atoms: _137  and  _138
REMARK   53  A    between atoms: _138  and  _139
REMARK   54  A    between atoms: _142  and  _144
REMARK   55  A    between atoms: _144  and  _145
REMARK   56  A    between atoms: _144  and  _147
REMARK   57  A    between atoms: _147  and  _148
REMARK   58  A    between atoms: _153  and  _155
REMARK   59  A    between atoms: _155  and  _156
REMARK   60  A    between atoms: _155  and  _158
REMARK   61  A    between atoms: _158  and  _159
REMARK   62  A    between atoms: _159  and  _160
REMARK   63  A    between atoms: _163  and  _165
REMARK   64  A    between atoms: _165  and  _166
REMARK   65  A    between atoms: _165  and  _168
REMARK   66  A    between atoms: _168  and  _169
REMARK   67  A    between atoms: _170  and  ZN_369
REMARK   68  A    between atoms: _174  and  _176
REMARK   69  A    between atoms: _176  and  _177
REMARK   70  A    between atoms: _176  and  _179
REMARK   71  A    between atoms: _179  and  _180
REMARK   72  A    between atoms: _183  and  _185
REMARK   73  A    between atoms: _185  and  _186
REMARK   74  A    between atoms: _185  and  _188
REMARK   75  A    between atoms: _191  and  _193
REMARK   76  A    between atoms: _193  and  _194
REMARK   77  A    between atoms: _193  and  _196
REMARK   78  A    between atoms: _196  and  _197
REMARK   79  A    between atoms: _202  and  _204
REMARK   80  A    between atoms: _204  and  _205
REMARK   81  A    between atoms: _204  and  _207
REMARK   82  A    between atoms: _207  and  _208
REMARK   83  A    between atoms: _214  and  _216
REMARK   84  A    between atoms: _216  and  _217
REMARK   85  A    between atoms: _216  and  _219
REMARK   86  A    between atoms: _222  and  _224
REMARK   87  A    between atoms: _224  and  _225
REMARK   88  A    between atoms: _224  and  _227
REMARK   89  A    between atoms: _227  and  _228
REMARK   90  A    between atoms: _231  and  _233
REMARK   91  A    between atoms: _233  and  _234
REMARK   92  A    between atoms: _237  and  _239
REMARK   93  A    between atoms: _239  and  _240
REMARK   94  A    between atoms: _239  and  _242
REMARK   95  A    between atoms: _245  and  _247
REMARK   96  A    between atoms: _247  and  _248
REMARK   97  A    between atoms: _247  and  _250
REMARK   98  A    between atoms: _250  and  _251
REMARK   99  A    between atoms: _254  and  _256
REMARK  100  A    between atoms: _256  and  _257
REMARK  101  A    between atoms: _256  and  _259
REMARK  102  A    between atoms: _259  and  _260
REMARK  103  A    between atoms: _262  and  _264
REMARK  104  A    between atoms: _264  and  _265
REMARK  105  A    between atoms: _264  and  _267
REMARK  106  A    between atoms: _267  and  _268
REMARK  107  A    between atoms: _271  and  _273
REMARK  108  A    between atoms: _273  and  _274
REMARK  109  A    between atoms: _273  and  _276
REMARK  110  A    between atoms: _276  and  _277
REMARK  111  A    between atoms: _280  and  _282
REMARK  112  A    between atoms: _282  and  _283
REMARK  113  A    between atoms: _282  and  _285
REMARK  114  A    between atoms: _285  and  _286
REMARK  115  A    between atoms: _290  and  _291
REMARK  116  A    between atoms: _297  and  _298
REMARK  117  A    between atoms: _303  and  _305
REMARK  118  A    between atoms: _305  and  _306
REMARK  119  A    between atoms: _305  and  _308
REMARK  120  A    between atoms: _308  and  _309
REMARK  121  A    between atoms: _312  and  _314
REMARK  122  A    between atoms: _314  and  _315
REMARK  123  A    between atoms: _314  and  _317
REMARK  124  A    between atoms: _317  and  _318
REMARK  125  A    between atoms: _321  and  _323
REMARK  126  A    between atoms: _323  and  _324
REMARK  127  A    between atoms: _323  and  _326
REMARK  128  A    between atoms: _328  and  _330
REMARK  129  A    between atoms: _330  and  _331
REMARK  130  A    between atoms: _330  and  _333
REMARK  131  A    between atoms: _336  and  _338
REMARK  132  A    between atoms: _338  and  _339
REMARK  133  A    between atoms: _338  and  _341
REMARK  134  A    between atoms: _341  and  _342
REMARK  135  A    between atoms: _352  and  _354
REMARK  136  A    between atoms: _354  and  _355
REMARK  137  A    between atoms: _354  and  _357
REMARK  138  A    between atoms: _357  and  _358
REMARK  139  A    between atoms: _358  and  _359
REMARK  140  A    between atoms: _359  and  _360
REMARK                            x       y       z     vdW  Elec       q    Type
REMARK                         _______ _______ _______ _____ _____    ______ ____
ROOT
ATOM      1  O   HOH     1      12.817   7.593   8.357  0.00  0.00    +0.000 OA
ENDROOT
TORSDOF 0
REMARK  Name = ../refined-set-2016/4q8x/4q8x_pocket.pdb
REMARK  140 active torsions:
REMARK  status: ('A' for Active; 'I' for Inactive)
REMARK    1  A    between atoms: _1  and  _3
REMARK    2  A    between atoms: _3  and  _4
REMARK    3  A    between atoms: _3  and  _6
REMARK    4  A    between atoms: _6  and  _7
REMARK    5  A    between atoms: _17  and  _19
REMARK    6  A    between atoms: _19  and  _20
REMARK    7  A    between atoms: _19  and  _22
REMARK    8  A    between atoms: _22  and  _23
REMARK    9  A    between atoms: _28  and  _29
REMARK   10  A    between atoms: _31  and  _33
REMARK   11  A    between atoms: _33  and  _34
REMARK   12  A    between atoms: _33  and  _36
REMARK   13  A    between atoms: _36  and  _37
REMARK   14  A    between atoms: _47  and  _49
REMARK   15  A    between atoms: _49  and  _50
REMARK   16  A    between atoms: _49  and  _52
REMARK   17  A    between atoms: _52  and  _53
REMARK   18  A    between atoms: _55  and  _57
REMARK   19  A    between atoms: _57  and  _58
REMARK   20  A    between atoms: _57  and  _60
REMARK   21  A    between atoms: _60  and  _61
REMARK   22  A    between atoms: _66  and  _68
REMARK   23  A    between atoms: _68  and  _69
REMARK   24  A    between atoms: _68  and  _71
REMARK   25  A    between atoms: _71  and  _72
REMARK   26  A    between atoms: _77  and  _79
REMARK   27  A    between atoms: _79  and  _80
REMARK   28  A    between atoms: _79  and  _82
REMARK   29  A    between atoms: _82  and  _83
REMARK   30  A    between atoms: _86  and  _88
REMARK   31  A    between atoms: _88  and  _89
REMARK   32  A    between atoms: _88  and  _91
REMARK   33  A    between atoms: _91  and  _92
REMARK   34  A    between atoms: _92  and  _93
REMARK   35  A    between atoms: _98  and  _100
REMARK   36  A    between atoms: _100  and  _101
REMARK   37  A    between atoms: _100  and  _103
REMARK   38  A    between atoms: _103  and  _104
REMARK   39  A    between atoms: _110  and  _112
REMARK   40  A    between atoms: _112  and  _113
REMARK   41  A    between atoms: _112  and  _115
REMARK   42  A    between atoms: _115  and  _116
REMARK   43  A    between atoms: _120  and  ZN_369
REMARK   44  A    between atoms: _121  and  _123
REMARK   45  A    between atoms: _123  and  _124
REMARK   46  A    between atoms: _123  and  _126
REMARK   47  A    between atoms: _126  and  _127
REMARK   48  A    between atoms: _131  and  ZN_369
REMARK   49  A    between atoms: _132  and  _134
REMARK   50  A    between atoms: _134  and  _135
REMARK   51  A    between atoms: _134  and  _137
REMARK   52  A    between atoms: _137  and  _138
REMARK   53  A    between atoms: _138  and  _139
REMARK   54  A    between atoms: _142  and  _144
REMARK   55  A    between atoms: _144  and  _145
REMARK   56  A    between atoms: _144  and  _147
REMARK   57  A    between atoms: _147  and  _148
REMARK   58  A    between atoms: _153  and  _155
REMARK   59  A    between atoms: _155  and  _156
REMARK   60  A    between atoms: _155  and  _158
REMARK   61  A    between atoms: _158  and  _159
REMARK   62  A    between atoms: _159  and  _160
REMARK   63  A    between atoms: _163  and  _165
REMARK   64  A    between atoms: _165  and  _166
REMARK   65  A    between atoms: _165  and  _168
REMARK   66  A    between atoms: _168  and  _169
REMARK   67  A    between atoms: _170  and  ZN_369
REMARK   68  A    between atoms: _174  and  _176
REMARK   69  A    between atoms: _176  and  _177
REMARK   70  A    between atoms: _176  and  _179
REMARK   71  A    between atoms: _179  and  _180
REMARK   72  A    between atoms: _183  and  _185
REMARK   73  A    between atoms: _185  and  _186
REMARK   74  A    between atoms: _185  and  _188
REMARK   75  A    between atoms: _191  and  _193
REMARK   76  A    between atoms: _193  and  _194
REMARK   77  A    between atoms: _193  and  _196
REMARK   78  A    between atoms: _196  and  _197
REMARK   79  A    between atoms: _202  and  _204
REMARK   80  A    between atoms: _204  and  _205
REMARK   81  A    between atoms: _204  and  _207
REMARK   82  A    between atoms: _207  and  _208
REMARK   83  A    between atoms: _214  and  _216
REMARK   84  A    between atoms: _216  and  _217
REMARK   85  A    between atoms: _216  and  _219
REMARK   86  A    between atoms: _222  and  _224
REMARK   87  A    between atoms: _224  and  _225
REMARK   88  A    between atoms: _224  and  _227
REMARK   89  A    between atoms: _227  and  _228
REMARK   90  A    between atoms: _231  and  _233
REMARK   91  A    between atoms: _233  and  _234
REMARK   92  A    between atoms: _237  and  _239
REMARK   93  A    between atoms: _239  and  _240
REMARK   94  A    between atoms: _239  and  _242
REMARK   95  A    between atoms: _245  and  _247
REMARK   96  A    between atoms: _247  and  _248
REMARK   97  A    between atoms: _247  and  _250
REMARK   98  A    between atoms: _250  and  _251
REMARK   99  A    between atoms: _254  and  _256
REMARK  100  A    between atoms: _256  and  _257
REMARK  101  A    between atoms: _256  and  _259
REMARK  102  A    between atoms: _259  and  _260
REMARK  103  A    between atoms: _262  and  _264
REMARK  104  A    between atoms: _264  and  _265
REMARK  105  A    between atoms: _264  and  _267
REMARK  106  A    between atoms: _267  and  _268
REMARK  107  A    between atoms: _271  and  _273
REMARK  108  A    between atoms: _273  and  _274
REMARK  109  A    between atoms: _273  and  _276
REMARK  110  A    between atoms: _276  and  _277
REMARK  111  A    between atoms: _280  and  _282
REMARK  112  A    between atoms: _282  and  _283
REMARK  113  A    between atoms: _282  and  _285
REMARK  114  A    between atoms: _285  and  _286
REMARK  115  A    between atoms: _290  and  _291
REMARK  116  A    between atoms: _297  and  _298
REMARK  117  A    between atoms: _303  and  _305
REMARK  118  A    between atoms: _305  and  _306
REMARK  119  A    between atoms: _305  and  _308
REMARK  120  A    between atoms: _308  and  _309
REMARK  121  A    between atoms: _312  and  _314
REMARK  122  A    between atoms: _314  and  _315
REMARK  123  A    between atoms: _314  and  _317
REMARK  124  A    between atoms: _317  and  _318
REMARK  125  A    between atoms: _321  and  _323
REMARK  126  A    between atoms: _323  and  _324
REMARK  127  A    between atoms: _323  and  _326
REMARK  128  A    between atoms: _328  and  _330
REMARK  129  A    between atoms: _330  and  _331
REMARK  130  A    between atoms: _330  and  _333
REMARK  131  A    between atoms: _336  and  _338
REMARK  132  A    between atoms: _338  and  _339
REMARK  133  A    between atoms: _338  and  _341
REMARK  134  A    between atoms: _341  and  _342
REMARK  135  A    between atoms: _352  and  _354
REMARK  136  A    between atoms: _354  and  _355
REMARK  137  A    between atoms: _354  and  _357
REMARK  138  A    between atoms: _357  and  _358
REMARK  139  A    between atoms: _358  and  _359
REMARK  140  A    between atoms: _359  and  _360
REMARK                            x       y       z     vdW  Elec       q    Type
REMARK                         _______ _______ _______ _____ _____    ______ ____
ROOT
ATOM      1  O   HOH     1      14.506   7.091  10.763  0.00  0.00    +0.000 OA
ENDROOT
TORSDOF 0
REMARK  Name = ../refined-set-2016/4q8x/4q8x_pocket.pdb
REMARK  140 active torsions:
REMARK  status: ('A' for Active; 'I' for Inactive)
REMARK    1  A    between atoms: _1  and  _3
REMARK    2  A    between atoms: _3  and  _4
REMARK    3  A    between atoms: _3  and  _6
REMARK    4  A    between atoms: _6  and  _7
REMARK    5  A    between atoms: _17  and  _19
REMARK    6  A    between atoms: _19  and  _20
REMARK    7  A    between atoms: _19  and  _22
REMARK    8  A    between atoms: _22  and  _23
REMARK    9  A    between atoms: _28  and  _29
REMARK   10  A    between atoms: _31  and  _33
REMARK   11  A    between atoms: _33  and  _34
REMARK   12  A    between atoms: _33  and  _36
REMARK   13  A    between atoms: _36  and  _37
REMARK   14  A    between atoms: _47  and  _49
REMARK   15  A    between atoms: _49  and  _50
REMARK   16  A    between atoms: _49  and  _52
REMARK   17  A    between atoms: _52  and  _53
REMARK   18  A    between atoms: _55  and  _57
REMARK   19  A    between atoms: _57  and  _58
REMARK   20  A    between atoms: _57  and  _60
REMARK   21  A    between atoms: _60  and  _61
REMARK   22  A    between atoms: _66  and  _68
REMARK   23  A    between atoms: _68  and  _69
REMARK   24  A    between atoms: _68  and  _71
REMARK   25  A    between atoms: _71  and  _72
REMARK   26  A    between atoms: _77  and  _79
REMARK   27  A    between atoms: _79  and  _80
REMARK   28  A    between atoms: _79  and  _82
REMARK   29  A    between atoms: _82  and  _83
REMARK   30  A    between atoms: _86  and  _88
REMARK   31  A    between atoms: _88  and  _89
REMARK   32  A    between atoms: _88  and  _91
REMARK   33  A    between atoms: _91  and  _92
REMARK   34  A    between atoms: _92  and  _93
REMARK   35  A    between atoms: _98  and  _100
REMARK   36  A    between atoms: _100  and  _101
REMARK   37  A    between atoms: _100  and  _103
REMARK   38  A    between atoms: _103  and  _104
REMARK   39  A    between atoms: _110  and  _112
REMARK   40  A    between atoms: _112  and  _113
REMARK   41  A    between atoms: _112  and  _115
REMARK   42  A    between atoms: _115  and  _116
REMARK   43  A    between atoms: _120  and  ZN_369
REMARK   44  A    between atoms: _121  and  _123
REMARK   45  A    between atoms: _123  and  _124
REMARK   46  A    between atoms: _123  and  _126
REMARK   47  A    between atoms: _126  and  _127
REMARK   48  A    between atoms: _131  and  ZN_369
REMARK   49  A    between atoms: _132  and  _134
REMARK   50  A    between atoms: _134  and  _135
REMARK   51  A    between atoms: _134  and  _137
REMARK   52  A    between atoms: _137  and  _138
REMARK   53  A    between atoms: _138  and  _139
REMARK   54  A    between atoms: _142  and  _144
REMARK   55  A    between atoms: _144  and  _145
REMARK   56  A    between atoms: _144  and  _147
REMARK   57  A    between atoms: _147  and  _148
REMARK   58  A    between atoms: _153  and  _155
REMARK   59  A    between atoms: _155  and  _156
REMARK   60  A    between atoms: _155  and  _158
REMARK   61  A    between atoms: _158  and  _159
REMARK   62  A    between atoms: _159  and  _160
REMARK   63  A    between atoms: _163  and  _165
REMARK   64  A    between atoms: _165  and  _166
REMARK   65  A    between atoms: _165  and  _168
REMARK   66  A    between atoms: _168  and  _169
REMARK   67  A    between atoms: _170  and  ZN_369
REMARK   68  A    between atoms: _174  and  _176
REMARK   69  A    between atoms: _176  and  _177
REMARK   70  A    between atoms: _176  and  _179
REMARK   71  A    between atoms: _179  and  _180
REMARK   72  A    between atoms: _183  and  _185
REMARK   73  A    between atoms: _185  and  _186
REMARK   74  A    between atoms: _185  and  _188
REMARK   75  A    between atoms: _191  and  _193
REMARK   76  A    between atoms: _193  and  _194
REMARK   77  A    between atoms: _193  and  _196
REMARK   78  A    between atoms: _196  and  _197
REMARK   79  A    between atoms: _202  and  _204
REMARK   80  A    between atoms: _204  and  _205
REMARK   81  A    between atoms: _204  and  _207
REMARK   82  A    between atoms: _207  and  _208
REMARK   83  A    between atoms: _214  and  _216
REMARK   84  A    between atoms: _216  and  _217
REMARK   85  A    between atoms: _216  and  _219
REMARK   86  A    between atoms: _222  and  _224
REMARK   87  A    between atoms: _224  and  _225
REMARK   88  A    between atoms: _224  and  _227
REMARK   89  A    between atoms: _227  and  _228
REMARK   90  A    between atoms: _231  and  _233
REMARK   91  A    between atoms: _233  and  _234
REMARK   92  A    between atoms: _237  and  _239
REMARK   93  A    between atoms: _239  and  _240
REMARK   94  A    between atoms: _239  and  _242
REMARK   95  A    between atoms: _245  and  _247
REMARK   96  A    between atoms: _247  and  _248
REMARK   97  A    between atoms: _247  and  _250
REMARK   98  A    between atoms: _250  and  _251
REMARK   99  A    between atoms: _254  and  _256
REMARK  100  A    between atoms: _256  and  _257
REMARK  101  A    between atoms: _256  and  _259
REMARK  102  A    between atoms: _259  and  _260
REMARK  103  A    between atoms: _262  and  _264
REMARK  104  A    between atoms: _264  and  _265
REMARK  105  A    between atoms: _264  and  _267
REMARK  106  A    between atoms: _267  and  _268
REMARK  107  A    between atoms: _271  and  _273
REMARK  108  A    between atoms: _273  and  _274
REMARK  109  A    between atoms: _273  and  _276
REMARK  110  A    between atoms: _276  and  _277
REMARK  111  A    between atoms: _280  and  _282
REMARK  112  A    between atoms: _282  and  _283
REMARK  113  A    between atoms: _282  and  _285
REMARK  114  A    between atoms: _285  and  _286
REMARK  115  A    between atoms: _290  and  _291
REMARK  116  A    between atoms: _297  and  _298
REMARK  117  A    between atoms: _303  and  _305
REMARK  118  A    between atoms: _305  and  _306
REMARK  119  A    between atoms: _305  and  _308
REMARK  120  A    between atoms: _308  and  _309
REMARK  121  A    between atoms: _312  and  _314
REMARK  122  A    between atoms: _314  and  _315
REMARK  123  A    between atoms: _314  and  _317
REMARK  124  A    between atoms: _317  and  _318
REMARK  125  A    between atoms: _321  and  _323
REMARK  126  A    between atoms: _323  and  _324
REMARK  127  A    between atoms: _323  and  _326
REMARK  128  A    between atoms: _328  and  _330
REMARK  129  A    between atoms: _330  and  _331
REMARK  130  A    between atoms: _330  and  _333
REMARK  131  A    between atoms: _336  and  _338
REMARK  132  A    between atoms: _338  and  _339
REMARK  133  A    between atoms: _338  and  _341
REMARK  134  A    between atoms: _341  and  _342
REMARK  135  A    between atoms: _352  and  _354
REMARK  136  A    between atoms: _354  and  _355
REMARK  137  A    between atoms: _354  and  _357
REMARK  138  A    between atoms: _357  and  _358
REMARK  139  A    between atoms: _358  and  _359
REMARK  140  A    between atoms: _359  and  _360
REMARK                            x       y       z     vdW  Elec       q    Type
REMARK                         _______ _______ _______ _____ _____    ______ ____
ROOT
ATOM      1  O   HOH     1      20.187   3.280   8.772  0.00  0.00    +0.000 OA
ENDROOT
TORSDOF 0
REMARK  Name = ../refined-set-2016/4q8x/4q8x_pocket.pdb
REMARK  140 active torsions:
REMARK  status: ('A' for Active; 'I' for Inactive)
REMARK    1  A    between atoms: _1  and  _3
REMARK    2  A    between atoms: _3  and  _4
REMARK    3  A    between atoms: _3  and  _6
REMARK    4  A    between atoms: _6  and  _7
REMARK    5  A    between atoms: _17  and  _19
REMARK    6  A    between atoms: _19  and  _20
REMARK    7  A    between atoms: _19  and  _22
REMARK    8  A    between atoms: _22  and  _23
REMARK    9  A    between atoms: _28  and  _29
REMARK   10  A    between atoms: _31  and  _33
REMARK   11  A    between atoms: _33  and  _34
REMARK   12  A    between atoms: _33  and  _36
REMARK   13  A    between atoms: _36  and  _37
REMARK   14  A    between atoms: _47  and  _49
REMARK   15  A    between atoms: _49  and  _50
REMARK   16  A    between atoms: _49  and  _52
REMARK   17  A    between atoms: _52  and  _53
REMARK   18  A    between atoms: _55  and  _57
REMARK   19  A    between atoms: _57  and  _58
REMARK   20  A    between atoms: _57  and  _60
REMARK   21  A    between atoms: _60  and  _61
REMARK   22  A    between atoms: _66  and  _68
REMARK   23  A    between atoms: _68  and  _69
REMARK   24  A    between atoms: _68  and  _71
REMARK   25  A    between atoms: _71  and  _72
REMARK   26  A    between atoms: _77  and  _79
REMARK   27  A    between atoms: _79  and  _80
REMARK   28  A    between atoms: _79  and  _82
REMARK   29  A    between atoms: _82  and  _83
REMARK   30  A    between atoms: _86  and  _88
REMARK   31  A    between atoms: _88  and  _89
REMARK   32  A    between atoms: _88  and  _91
REMARK   33  A    between atoms: _91  and  _92
REMARK   34  A    between atoms: _92  and  _93
REMARK   35  A    between atoms: _98  and  _100
REMARK   36  A    between atoms: _100  and  _101
REMARK   37  A    between atoms: _100  and  _103
REMARK   38  A    between atoms: _103  and  _104
REMARK   39  A    between atoms: _110  and  _112
REMARK   40  A    between atoms: _112  and  _113
REMARK   41  A    between atoms: _112  and  _115
REMARK   42  A    between atoms: _115  and  _116
REMARK   43  A    between atoms: _120  and  ZN_369
REMARK   44  A    between atoms: _121  and  _123
REMARK   45  A    between atoms: _123  and  _124
REMARK   46  A    between atoms: _123  and  _126
REMARK   47  A    between atoms: _126  and  _127
REMARK   48  A    between atoms: _131  and  ZN_369
REMARK   49  A    between atoms: _132  and  _134
REMARK   50  A    between atoms: _134  and  _135
REMARK   51  A    between atoms: _134  and  _137
REMARK   52  A    between atoms: _137  and  _138
REMARK   53  A    between atoms: _138  and  _139
REMARK   54  A    between atoms: _142  and  _144
REMARK   55  A    between atoms: _144  and  _145
REMARK   56  A    between atoms: _144  and  _147
REMARK   57  A    between atoms: _147  and  _148
REMARK   58  A    between atoms: _153  and  _155
REMARK   59  A    between atoms: _155  and  _156
REMARK   60  A    between atoms: _155  and  _158
REMARK   61  A    between atoms: _158  and  _159
REMARK   62  A    between atoms: _159  and  _160
REMARK   63  A    between atoms: _163  and  _165
REMARK   64  A    between atoms: _165  and  _166
REMARK   65  A    between atoms: _165  and  _168
REMARK   66  A    between atoms: _168  and  _169
REMARK   67  A    between atoms: _170  and  ZN_369
REMARK   68  A    between atoms: _174  and  _176
REMARK   69  A    between atoms: _176  and  _177
REMARK   70  A    between atoms: _176  and  _179
REMARK   71  A    between atoms: _179  and  _180
REMARK   72  A    between atoms: _183  and  _185
REMARK   73  A    between atoms: _185  and  _186
REMARK   74  A    between atoms: _185  and  _188
REMARK   75  A    between atoms: _191  and  _193
REMARK   76  A    between atoms: _193  and  _194
REMARK   77  A    between atoms: _193  and  _196
REMARK   78  A    between atoms: _196  and  _197
REMARK   79  A    between atoms: _202  and  _204
REMARK   80  A    between atoms: _204  and  _205
REMARK   81  A    between atoms: _204  and  _207
REMARK   82  A    between atoms: _207  and  _208
REMARK   83  A    between atoms: _214  and  _216
REMARK   84  A    between atoms: _216  and  _217
REMARK   85  A    between atoms: _216  and  _219
REMARK   86  A    between atoms: _222  and  _224
REMARK   87  A    between atoms: _224  and  _225
REMARK   88  A    between atoms: _224  and  _227
REMARK   89  A    between atoms: _227  and  _228
REMARK   90  A    between atoms: _231  and  _233
REMARK   91  A    between atoms: _233  and  _234
REMARK   92  A    between atoms: _237  and  _239
REMARK   93  A    between atoms: _239  and  _240
REMARK   94  A    between atoms: _239  and  _242
REMARK   95  A    between atoms: _245  and  _247
REMARK   96  A    between atoms: _247  and  _248
REMARK   97  A    between atoms: _247  and  _250
REMARK   98  A    between atoms: _250  and  _251
REMARK   99  A    between atoms: _254  and  _256
REMARK  100  A    between atoms: _256  and  _257
REMARK  101  A    between atoms: _256  and  _259
REMARK  102  A    between atoms: _259  and  _260
REMARK  103  A    between atoms: _262  and  _264
REMARK  104  A    between atoms: _264  and  _265
REMARK  105  A    between atoms: _264  and  _267
REMARK  106  A    between atoms: _267  and  _268
REMARK  107  A    between atoms: _271  and  _273
REMARK  108  A    between atoms: _273  and  _274
REMARK  109  A    between atoms: _273  and  _276
REMARK  110  A    between atoms: _276  and  _277
REMARK  111  A    between atoms: _280  and  _282
REMARK  112  A    between atoms: _282  and  _283
REMARK  113  A    between atoms: _282  and  _285
REMARK  114  A    between atoms: _285  and  _286
REMARK  115  A    between atoms: _290  and  _291
REMARK  116  A    between atoms: _297  and  _298
REMARK  117  A    between atoms: _303  and  _305
REMARK  118  A    between atoms: _305  and  _306
REMARK  119  A    between atoms: _305  and  _308
REMARK  120  A    between atoms: _308  and  _309
REMARK  121  A    between atoms: _312  and  _314
REMARK  122  A    between atoms: _314  and  _315
REMARK  123  A    between atoms: _314  and  _317
REMARK  124  A    between atoms: _317  and  _318
REMARK  125  A    between atoms: _321  and  _323
REMARK  126  A    between atoms: _323  and  _324
REMARK  127  A    between atoms: _323  and  _326
REMARK  128  A    between atoms: _328  and  _330
REMARK  129  A    between atoms: _330  and  _331
REMARK  130  A    between atoms: _330  and  _333
REMARK  131  A    between atoms: _336  and  _338
REMARK  132  A    between atoms: _338  and  _339
REMARK  133  A    between atoms: _338  and  _341
REMARK  134  A    between atoms: _341  and  _342
REMARK  135  A    between atoms: _352  and  _354
REMARK  136  A    between atoms: _354  and  _355
REMARK  137  A    between atoms: _354  and  _357
REMARK  138  A    between atoms: _357  and  _358
REMARK  139  A    between atoms: _358  and  _359
REMARK  140  A    between atoms: _359  and  _360
REMARK                            x       y       z     vdW  Elec       q    Type
REMARK                         _______ _______ _______ _____ _____    ______ ____
ROOT
ATOM      1  O   HOH     1      19.503   8.503  14.945  0.00  0.00    +0.000 OA
ENDROOT
TORSDOF 0
REMARK  Name = ../refined-set-2016/4q8x/4q8x_pocket.pdb
REMARK  140 active torsions:
REMARK  status: ('A' for Active; 'I' for Inactive)
REMARK    1  A    between atoms: _1  and  _3
REMARK    2  A    between atoms: _3  and  _4
REMARK    3  A    between atoms: _3  and  _6
REMARK    4  A    between atoms: _6  and  _7
REMARK    5  A    between atoms: _17  and  _19
REMARK    6  A    between atoms: _19  and  _20
REMARK    7  A    between atoms: _19  and  _22
REMARK    8  A    between atoms: _22  and  _23
REMARK    9  A    between atoms: _28  and  _29
REMARK   10  A    between atoms: _31  and  _33
REMARK   11  A    between atoms: _33  and  _34
REMARK   12  A    between atoms: _33  and  _36
REMARK   13  A    between atoms: _36  and  _37
REMARK   14  A    between atoms: _47  and  _49
REMARK   15  A    between atoms: _49  and  _50
REMARK   16  A    between atoms: _49  and  _52
REMARK   17  A    between atoms: _52  and  _53
REMARK   18  A    between atoms: _55  and  _57
REMARK   19  A    between atoms: _57  and  _58
REMARK   20  A    between atoms: _57  and  _60
REMARK   21  A    between atoms: _60  and  _61
REMARK   22  A    between atoms: _66  and  _68
REMARK   23  A    between atoms: _68  and  _69
REMARK   24  A    between atoms: _68  and  _71
REMARK   25  A    between atoms: _71  and  _72
REMARK   26  A    between atoms: _77  and  _79
REMARK   27  A    between atoms: _79  and  _80
REMARK   28  A    between atoms: _79  and  _82
REMARK   29  A    between atoms: _82  and  _83
REMARK   30  A    between atoms: _86  and  _88
REMARK   31  A    between atoms: _88  and  _89
REMARK   32  A    between atoms: _88  and  _91
REMARK   33  A    between atoms: _91  and  _92
REMARK   34  A    between atoms: _92  and  _93
REMARK   35  A    between atoms: _98  and  _100
REMARK   36  A    between atoms: _100  and  _101
REMARK   37  A    between atoms: _100  and  _103
REMARK   38  A    between atoms: _103  and  _104
REMARK   39  A    between atoms: _110  and  _112
REMARK   40  A    between atoms: _112  and  _113
REMARK   41  A    between atoms: _112  and  _115
REMARK   42  A    between atoms: _115  and  _116
REMARK   43  A    between atoms: _120  and  ZN_369
REMARK   44  A    between atoms: _121  and  _123
REMARK   45  A    between atoms: _123  and  _124
REMARK   46  A    between atoms: _123  and  _126
REMARK   47  A    between atoms: _126  and  _127
REMARK   48  A    between atoms: _131  and  ZN_369
REMARK   49  A    between atoms: _132  and  _134
REMARK   50  A    between atoms: _134  and  _135
REMARK   51  A    between atoms: _134  and  _137
REMARK   52  A    between atoms: _137  and  _138
REMARK   53  A    between atoms: _138  and  _139
REMARK   54  A    between atoms: _142  and  _144
REMARK   55  A    between atoms: _144  and  _145
REMARK   56  A    between atoms: _144  and  _147
REMARK   57  A    between atoms: _147  and  _148
REMARK   58  A    between atoms: _153  and  _155
REMARK   59  A    between atoms: _155  and  _156
REMARK   60  A    between atoms: _155  and  _158
REMARK   61  A    between atoms: _158  and  _159
REMARK   62  A    between atoms: _159  and  _160
REMARK   63  A    between atoms: _163  and  _165
REMARK   64  A    between atoms: _165  and  _166
REMARK   65  A    between atoms: _165  and  _168
REMARK   66  A    between atoms: _168  and  _169
REMARK   67  A    between atoms: _170  and  ZN_369
REMARK   68  A    between atoms: _174  and  _176
REMARK   69  A    between atoms: _176  and  _177
REMARK   70  A    between atoms: _176  and  _179
REMARK   71  A    between atoms: _179  and  _180
REMARK   72  A    between atoms: _183  and  _185
REMARK   73  A    between atoms: _185  and  _186
REMARK   74  A    between atoms: _185  and  _188
REMARK   75  A    between atoms: _191  and  _193
REMARK   76  A    between atoms: _193  and  _194
REMARK   77  A    between atoms: _193  and  _196
REMARK   78  A    between atoms: _196  and  _197
REMARK   79  A    between atoms: _202  and  _204
REMARK   80  A    between atoms: _204  and  _205
REMARK   81  A    between atoms: _204  and  _207
REMARK   82  A    between atoms: _207  and  _208
REMARK   83  A    between atoms: _214  and  _216
REMARK   84  A    between atoms: _216  and  _217
REMARK   85  A    between atoms: _216  and  _219
REMARK   86  A    between atoms: _222  and  _224
REMARK   87  A    between atoms: _224  and  _225
REMARK   88  A    between atoms: _224  and  _227
REMARK   89  A    between atoms: _227  and  _228
REMARK   90  A    between atoms: _231  and  _233
REMARK   91  A    between atoms: _233  and  _234
REMARK   92  A    between atoms: _237  and  _239
REMARK   93  A    between atoms: _239  and  _240
REMARK   94  A    between atoms: _239  and  _242
REMARK   95  A    between atoms: _245  and  _247
REMARK   96  A    between atoms: _247  and  _248
REMARK   97  A    between atoms: _247  and  _250
REMARK   98  A    between atoms: _250  and  _251
REMARK   99  A    between atoms: _254  and  _256
REMARK  100  A    between atoms: _256  and  _257
REMARK  101  A    between atoms: _256  and  _259
REMARK  102  A    between atoms: _259  and  _260
REMARK  103  A    between atoms: _262  and  _264
REMARK  104  A    between atoms: _264  and  _265
REMARK  105  A    between atoms: _264  and  _267
REMARK  106  A    between atoms: _267  and  _268
REMARK  107  A    between atoms: _271  and  _273
REMARK  108  A    between atoms: _273  and  _274
REMARK  109  A    between atoms: _273  and  _276
REMARK  110  A    between atoms: _276  and  _277
REMARK  111  A    between atoms: _280  and  _282
REMARK  112  A    between atoms: _282  and  _283
REMARK  113  A    between atoms: _282  and  _285
REMARK  114  A    between atoms: _285  and  _286
REMARK  115  A    between atoms: _290  and  _291
REMARK  116  A    between atoms: _297  and  _298
REMARK  117  A    between atoms: _303  and  _305
REMARK  118  A    between atoms: _305  and  _306
REMARK  119  A    between atoms: _305  and  _308
REMARK  120  A    between atoms: _308  and  _309
REMARK  121  A    between atoms: _312  and  _314
REMARK  122  A    between atoms: _314  and  _315
REMARK  123  A    between atoms: _314  and  _317
REMARK  124  A    between atoms: _317  and  _318
REMARK  125  A    between atoms: _321  and  _323
REMARK  126  A    between atoms: _323  and  _324
REMARK  127  A    between atoms: _323  and  _326
REMARK  128  A    between atoms: _328  and  _330
REMARK  129  A    between atoms: _330  and  _331
REMARK  130  A    between atoms: _330  and  _333
REMARK  131  A    between atoms: _336  and  _338
REMARK  132  A    between atoms: _338  and  _339
REMARK  133  A    between atoms: _338  and  _341
REMARK  134  A    between atoms: _341  and  _342
REMARK  135  A    between atoms: _352  and  _354
REMARK  136  A    between atoms: _354  and  _355
REMARK  137  A    between atoms: _354  and  _357
REMARK  138  A    between atoms: _357  and  _358
REMARK  139  A    between atoms: _358  and  _359
REMARK  140  A    between atoms: _359  and  _360
REMARK                            x       y       z     vdW  Elec       q    Type
REMARK                         _______ _______ _______ _____ _____    ______ ____
ROOT
ATOM      1  O   HOH     1      15.914   2.895  10.955  0.00  0.00    +0.000 OA
ENDROOT
TORSDOF 0
