REMARK  Name = ../refined-set-2016/1sv3/1sv3_pocket.pdb
REMARK  123 active torsions:
REMARK  status: ('A' for Active; 'I' for Inactive)
REMARK    1  A    between atoms: _1  and  _3
REMARK    2  A    between atoms: _3  and  _4
REMARK    3  A    between atoms: _3  and  _6
REMARK    4  A    between atoms: _6  and  _7
REMARK    5  A    between atoms: _10  and  _12
REMARK    6  A    between atoms: _12  and  _13
REMARK    7  A    between atoms: _12  and  _15
REMARK    8  A    between atoms: _15  and  _16
REMARK    9  A    between atoms: _19  and  _21
REMARK   10  A    between atoms: _21  and  _22
REMARK   11  A    between atoms: _21  and  _24
REMARK   12  A    between atoms: _24  and  _25
REMARK   13  A    between atoms: _31  and  _33
REMARK   14  A    between atoms: _33  and  _34
REMARK   15  A    between atoms: _36  and  _38
REMARK   16  A    between atoms: _38  and  _39
REMARK   17  A    between atoms: _38  and  _41
REMARK   18  A    between atoms: _41  and  _42
REMARK   19  A    between atoms: _42  and  _43
REMARK   20  A    between atoms: _43  and  _44
REMARK   21  A    between atoms: _44  and  _45
REMARK   22  A    between atoms: _49  and  _51
REMARK   23  A    between atoms: _51  and  _52
REMARK   24  A    between atoms: _51  and  _54
REMARK   25  A    between atoms: _54  and  _55
REMARK   26  A    between atoms: _58  and  _60
REMARK   27  A    between atoms: _60  and  _61
REMARK   28  A    between atoms: _60  and  _63
REMARK   29  A    between atoms: _63  and  _64
REMARK   30  A    between atoms: _67  and  _69
REMARK   31  A    between atoms: _69  and  _70
REMARK   32  A    between atoms: _73  and  _75
REMARK   33  A    between atoms: _75  and  _76
REMARK   34  A    between atoms: _75  and  _78
REMARK   35  A    between atoms: _78  and  _79
REMARK   36  A    between atoms: _83  and  _84
REMARK   37  A    between atoms: _89  and  _91
REMARK   38  A    between atoms: _91  and  _92
REMARK   39  A    between atoms: _91  and  _94
REMARK   40  A    between atoms: _94  and  _95
REMARK   41  A    between atoms: _97  and  _99
REMARK   42  A    between atoms: _99  and  _100
REMARK   43  A    between atoms: _99  and  _102
REMARK   44  A    between atoms: _102  and  _103
REMARK   45  A    between atoms: _108  and  _109
REMARK   46  A    between atoms: _111  and  _113
REMARK   47  A    between atoms: _113  and  _114
REMARK   48  A    between atoms: _113  and  _116
REMARK   49  A    between atoms: _116  and  _117
REMARK   50  A    between atoms: _119  and  _121
REMARK   51  A    between atoms: _121  and  _122
REMARK   52  A    between atoms: _121  and  _124
REMARK   53  A    between atoms: _124  and  _125
REMARK   54  A    between atoms: _127  and  _129
REMARK   55  A    between atoms: _129  and  _130
REMARK   56  A    between atoms: _129  and  _132
REMARK   57  A    between atoms: _132  and  _133
REMARK   58  A    between atoms: _138  and  _139
REMARK   59  A    between atoms: _141  and  _143
REMARK   60  A    between atoms: _143  and  _144
REMARK   61  A    between atoms: _143  and  _146
REMARK   62  A    between atoms: _146  and  _147
REMARK   63  A    between atoms: _152  and  _153
REMARK   64  A    between atoms: _155  and  _157
REMARK   65  A    between atoms: _157  and  _158
REMARK   66  A    between atoms: _157  and  _160
REMARK   67  A    between atoms: _160  and  _161
REMARK   68  A    between atoms: _161  and  _219
REMARK   69  A    between atoms: _162  and  _164
REMARK   70  A    between atoms: _164  and  _165
REMARK   71  A    between atoms: _167  and  _169
REMARK   72  A    between atoms: _169  and  _170
REMARK   73  A    between atoms: _169  and  _172
REMARK   74  A    between atoms: _172  and  _173
REMARK   75  A    between atoms: _183  and  _185
REMARK   76  A    between atoms: _185  and  _186
REMARK   77  A    between atoms: _188  and  _190
REMARK   78  A    between atoms: _190  and  _191
REMARK   79  A    between atoms: _190  and  _193
REMARK   80  A    between atoms: _193  and  _194
REMARK   81  A    between atoms: _197  and  _199
REMARK   82  A    between atoms: _199  and  _200
REMARK   83  A    between atoms: _199  and  _202
REMARK   84  A    between atoms: _202  and  _203
REMARK   85  A    between atoms: _206  and  _208
REMARK   86  A    between atoms: _208  and  _209
REMARK   87  A    between atoms: _208  and  _211
REMARK   88  A    between atoms: _213  and  _215
REMARK   89  A    between atoms: _215  and  _216
REMARK   90  A    between atoms: _215  and  _218
REMARK   91  A    between atoms: _218  and  _219
REMARK   92  A    between atoms: _220  and  _222
REMARK   93  A    between atoms: _222  and  _223
REMARK   94  A    between atoms: _222  and  _225
REMARK   95  A    between atoms: _225  and  _226
REMARK   96  A    between atoms: _232  and  _234
REMARK   97  A    between atoms: _234  and  _235
REMARK   98  A    between atoms: _234  and  _237
REMARK   99  A    between atoms: _237  and  _238
REMARK  100  A    between atoms: _243  and  _245
REMARK  101  A    between atoms: _245  and  _246
REMARK  102  A    between atoms: _245  and  _248
REMARK  103  A    between atoms: _248  and  _249
REMARK  104  A    between atoms: _252  and  _254
REMARK  105  A    between atoms: _254  and  _255
REMARK  106  A    between atoms: _254  and  _257
REMARK  107  A    between atoms: _257  and  _258
REMARK  108  A    between atoms: _263  and  _264
REMARK  109  A    between atoms: _266  and  _268
REMARK  110  A    between atoms: _268  and  _269
REMARK  111  A    between atoms: _268  and  _271
REMARK  112  A    between atoms: _271  and  _272
REMARK  113  A    between atoms: _272  and  _273
REMARK  114  A    between atoms: _273  and  _274
REMARK  115  A    between atoms: _274  and  _275
REMARK  116  A    between atoms: _279  and  _281
REMARK  117  A    between atoms: _281  and  _282
REMARK  118  A    between atoms: _285  and  _287
REMARK  119  A    between atoms: _287  and  _288
REMARK  120  A    between atoms: _291  and  _293
REMARK  121  A    between atoms: _293  and  _294
REMARK  122  A    between atoms: _293  and  _296
REMARK  123  A    between atoms: _296  and  _297
REMARK                            x       y       z     vdW  Elec       q    Type
REMARK                         _______ _______ _______ _____ _____    ______ ____
ROOT
ATOM      1  C   LEU A   1      42.576  34.607   4.809  0.00  0.00    +0.238 C 
ATOM      2  N   LEU A   2      41.302  34.587   5.146  0.00  0.00    -0.298 N 
ATOM      3  H   LEU A   2      40.939  35.265   5.846  0.00  0.00    +0.150 HD
ATOM      4  O   LEU A   1      43.028  33.831   3.973  0.00  0.00    -0.274 OA
ENDROOT
BRANCH   1   5
ATOM      5  CA  LEU A   1      43.471  35.659   5.450  0.00  0.00    +0.145 C 
BRANCH   5   6
ATOM      6  N   LEU A   1      42.864  36.966   5.561  0.00  0.00    -0.238 NA
ATOM      7  H   LEU A   1      42.804  37.412   6.499  0.00  0.00    +0.142 HD
ENDBRANCH   5   6
BRANCH   5   8
ATOM      8  CB  LEU A   1      43.866  35.179   6.833  0.00  0.00    +0.026 C 
BRANCH   8   9
ATOM      9  CG  LEU A   1      44.658  33.899   6.939  0.00  0.00    +0.002 C 
ATOM     10  CD2 LEU A   1      44.901  33.642   8.415  0.00  0.00    +0.000 C 
ATOM     11  CD1 LEU A   1      45.944  34.005   6.155  0.00  0.00    +0.000 C 
ENDBRANCH   8   9
ENDBRANCH   5   8
ENDBRANCH   1   5
BRANCH   2  12
ATOM     12  CA  LEU A   2      40.398  33.611   4.536  0.00  0.00    +0.137 C 
BRANCH  12  13
ATOM     13  C   LEU A   2      40.212  33.862   3.052  0.00  0.00    +0.227 C 
ATOM     14  O   LEU A   2      40.134  32.928   2.258  0.00  0.00    -0.286 OA
ENDBRANCH  12  13
BRANCH  12  15
ATOM     15  CB  LEU A   2      39.043  33.611   5.238  0.00  0.00    +0.028 C 
BRANCH  15  16
ATOM     16  CG  LEU A   2      39.073  32.871   6.563  0.00  0.00    +0.002 C 
ATOM     17  CD2 LEU A   2      37.708  32.929   7.198  0.00  0.00    +0.000 C 
ATOM     18  CD1 LEU A   2      39.517  31.431   6.371  0.00  0.00    +0.000 C 
ENDBRANCH  15  16
ENDBRANCH  12  15
ENDBRANCH   2  12
TORSDOF 8
REMARK  Name = ../refined-set-2016/1sv3/1sv3_pocket.pdb
REMARK  123 active torsions:
REMARK  status: ('A' for Active; 'I' for Inactive)
REMARK    1  A    between atoms: _1  and  _3
REMARK    2  A    between atoms: _3  and  _4
REMARK    3  A    between atoms: _3  and  _6
REMARK    4  A    between atoms: _6  and  _7
REMARK    5  A    between atoms: _10  and  _12
REMARK    6  A    between atoms: _12  and  _13
REMARK    7  A    between atoms: _12  and  _15
REMARK    8  A    between atoms: _15  and  _16
REMARK    9  A    between atoms: _19  and  _21
REMARK   10  A    between atoms: _21  and  _22
REMARK   11  A    between atoms: _21  and  _24
REMARK   12  A    between atoms: _24  and  _25
REMARK   13  A    between atoms: _31  and  _33
REMARK   14  A    between atoms: _33  and  _34
REMARK   15  A    between atoms: _36  and  _38
REMARK   16  A    between atoms: _38  and  _39
REMARK   17  A    between atoms: _38  and  _41
REMARK   18  A    between atoms: _41  and  _42
REMARK   19  A    between atoms: _42  and  _43
REMARK   20  A    between atoms: _43  and  _44
REMARK   21  A    between atoms: _44  and  _45
REMARK   22  A    between atoms: _49  and  _51
REMARK   23  A    between atoms: _51  and  _52
REMARK   24  A    between atoms: _51  and  _54
REMARK   25  A    between atoms: _54  and  _55
REMARK   26  A    between atoms: _58  and  _60
REMARK   27  A    between atoms: _60  and  _61
REMARK   28  A    between atoms: _60  and  _63
REMARK   29  A    between atoms: _63  and  _64
REMARK   30  A    between atoms: _67  and  _69
REMARK   31  A    between atoms: _69  and  _70
REMARK   32  A    between atoms: _73  and  _75
REMARK   33  A    between atoms: _75  and  _76
REMARK   34  A    between atoms: _75  and  _78
REMARK   35  A    between atoms: _78  and  _79
REMARK   36  A    between atoms: _83  and  _84
REMARK   37  A    between atoms: _89  and  _91
REMARK   38  A    between atoms: _91  and  _92
REMARK   39  A    between atoms: _91  and  _94
REMARK   40  A    between atoms: _94  and  _95
REMARK   41  A    between atoms: _97  and  _99
REMARK   42  A    between atoms: _99  and  _100
REMARK   43  A    between atoms: _99  and  _102
REMARK   44  A    between atoms: _102  and  _103
REMARK   45  A    between atoms: _108  and  _109
REMARK   46  A    between atoms: _111  and  _113
REMARK   47  A    between atoms: _113  and  _114
REMARK   48  A    between atoms: _113  and  _116
REMARK   49  A    between atoms: _116  and  _117
REMARK   50  A    between atoms: _119  and  _121
REMARK   51  A    between atoms: _121  and  _122
REMARK   52  A    between atoms: _121  and  _124
REMARK   53  A    between atoms: _124  and  _125
REMARK   54  A    between atoms: _127  and  _129
REMARK   55  A    between atoms: _129  and  _130
REMARK   56  A    between atoms: _129  and  _132
REMARK   57  A    between atoms: _132  and  _133
REMARK   58  A    between atoms: _138  and  _139
REMARK   59  A    between atoms: _141  and  _143
REMARK   60  A    between atoms: _143  and  _144
REMARK   61  A    between atoms: _143  and  _146
REMARK   62  A    between atoms: _146  and  _147
REMARK   63  A    between atoms: _152  and  _153
REMARK   64  A    between atoms: _155  and  _157
REMARK   65  A    between atoms: _157  and  _158
REMARK   66  A    between atoms: _157  and  _160
REMARK   67  A    between atoms: _160  and  _161
REMARK   68  A    between atoms: _161  and  _219
REMARK   69  A    between atoms: _162  and  _164
REMARK   70  A    between atoms: _164  and  _165
REMARK   71  A    between atoms: _167  and  _169
REMARK   72  A    between atoms: _169  and  _170
REMARK   73  A    between atoms: _169  and  _172
REMARK   74  A    between atoms: _172  and  _173
REMARK   75  A    between atoms: _183  and  _185
REMARK   76  A    between atoms: _185  and  _186
REMARK   77  A    between atoms: _188  and  _190
REMARK   78  A    between atoms: _190  and  _191
REMARK   79  A    between atoms: _190  and  _193
REMARK   80  A    between atoms: _193  and  _194
REMARK   81  A    between atoms: _197  and  _199
REMARK   82  A    between atoms: _199  and  _200
REMARK   83  A    between atoms: _199  and  _202
REMARK   84  A    between atoms: _202  and  _203
REMARK   85  A    between atoms: _206  and  _208
REMARK   86  A    between atoms: _208  and  _209
REMARK   87  A    between atoms: _208  and  _211
REMARK   88  A    between atoms: _213  and  _215
REMARK   89  A    between atoms: _215  and  _216
REMARK   90  A    between atoms: _215  and  _218
REMARK   91  A    between atoms: _218  and  _219
REMARK   92  A    between atoms: _220  and  _222
REMARK   93  A    between atoms: _222  and  _223
REMARK   94  A    between atoms: _222  and  _225
REMARK   95  A    between atoms: _225  and  _226
REMARK   96  A    between atoms: _232  and  _234
REMARK   97  A    between atoms: _234  and  _235
REMARK   98  A    between atoms: _234  and  _237
REMARK   99  A    between atoms: _237  and  _238
REMARK  100  A    between atoms: _243  and  _245
REMARK  101  A    between atoms: _245  and  _246
REMARK  102  A    between atoms: _245  and  _248
REMARK  103  A    between atoms: _248  and  _249
REMARK  104  A    between atoms: _252  and  _254
REMARK  105  A    between atoms: _254  and  _255
REMARK  106  A    between atoms: _254  and  _257
REMARK  107  A    between atoms: _257  and  _258
REMARK  108  A    between atoms: _263  and  _264
REMARK  109  A    between atoms: _266  and  _268
REMARK  110  A    between atoms: _268  and  _269
REMARK  111  A    between atoms: _268  and  _271
REMARK  112  A    between atoms: _271  and  _272
REMARK  113  A    between atoms: _272  and  _273
REMARK  114  A    between atoms: _273  and  _274
REMARK  115  A    between atoms: _274  and  _275
REMARK  116  A    between atoms: _279  and  _281
REMARK  117  A    between atoms: _281  and  _282
REMARK  118  A    between atoms: _285  and  _287
REMARK  119  A    between atoms: _287  and  _288
REMARK  120  A    between atoms: _291  and  _293
REMARK  121  A    between atoms: _293  and  _294
REMARK  122  A    between atoms: _293  and  _296
REMARK  123  A    between atoms: _296  and  _297
REMARK                            x       y       z     vdW  Elec       q    Type
REMARK                         _______ _______ _______ _____ _____    ______ ____
ROOT
ATOM      1  CA  GLY A   2      43.212  31.291   1.182  0.00  0.00    +0.176 C 
ENDROOT
BRANCH   1   3
ATOM      2  C   PHE A   1      43.766  33.472   0.264  0.00  0.00    +0.239 C 
ATOM      3  N   GLY A   2      43.259  32.746   1.228  0.00  0.00    -0.296 N 
ATOM      4  H   GLY A   2      42.873  33.230   2.064  0.00  0.00    +0.150 HD
ATOM      5  O   PHE A   1      44.135  33.030  -0.804  0.00  0.00    -0.274 OA
BRANCH   2   6
ATOM      6  CA  PHE A   1      43.671  34.987   0.479  0.00  0.00    +0.149 C 
BRANCH   6   7
ATOM      7  N   PHE A   1      42.404  35.376   1.070  0.00  0.00    -0.238 NA
ATOM      8  H   PHE A   1      42.396  35.877   1.982  0.00  0.00    +0.142 HD
ENDBRANCH   6   7
BRANCH   6   9
ATOM      9  CB  PHE A   1      44.819  35.479   1.377  0.00  0.00    +0.053 C 
BRANCH   9  10
ATOM     10  CG  PHE A   1      46.263  35.228   0.855  0.00  0.00    -0.020 A 
ATOM     11  CD2 PHE A   1      47.216  34.898   1.753  0.00  0.00    -0.004 A 
ATOM     12  CE2 PHE A   1      48.497  34.703   1.379  0.00  0.00    -0.000 A 
ATOM     13  CZ  PHE A   1      48.843  34.791  -0.017  0.00  0.00    -0.000 A 
ATOM     14  CE1 PHE A   1      47.856  35.130  -0.905  0.00  0.00    -0.000 A 
ATOM     15  CD1 PHE A   1      46.598  35.314  -0.468  0.00  0.00    -0.004 A 
ENDBRANCH   9  10
ENDBRANCH   6   9
ENDBRANCH   2   6
ENDBRANCH   1   3
BRANCH   1  16
ATOM     16  C   GLY A   2      42.322  30.830   0.058  0.00  0.00    +0.243 C 
ATOM     17  N   LYS A   3      41.208  31.504  -0.193  0.00  0.00    -0.298 N 
ATOM     18  H   LYS A   3      40.973  32.313   0.416  0.00  0.00    +0.150 HD
ATOM     19  O   GLY A   2      42.687  29.902  -0.666  0.00  0.00    -0.273 OA
BRANCH  17  20
ATOM     20  CA  LYS A   3      40.295  31.167  -1.282  0.00  0.00    +0.137 C 
BRANCH  20  21
ATOM     21  C   LYS A   3      40.972  31.491  -2.605  0.00  0.00    +0.227 C 
ATOM     22  O   LYS A   3      40.930  30.703  -3.560  0.00  0.00    -0.286 OA
ENDBRANCH  20  21
BRANCH  20  23
ATOM     23  CB  LYS A   3      38.975  31.962  -1.141  0.00  0.00    +0.028 C 
BRANCH  23  24
ATOM     24  CG  LYS A   3      38.089  31.919  -2.364  0.00  0.00    -0.000 C 
BRANCH  24  25
ATOM     25  CD  LYS A   3      36.749  32.606  -2.101  0.00  0.00    -0.024 C 
BRANCH  25  26
ATOM     26  CE  LYS A   3      35.832  32.568  -3.324  0.00  0.00    -0.086 C 
BRANCH  26  27
ATOM     27  NZ  LYS A   3      36.099  33.664  -4.330  0.00  0.00    +0.380 N 
ATOM     28  HZ1 LYS A   3      35.966  34.590  -3.876  0.00  0.00    -0.089 HD
ATOM     29  HZ2 LYS A   3      37.076  33.584  -4.677  0.00  0.00    -0.089 HD
ATOM     30  HZ3 LYS A   3      35.438  33.570  -5.127  0.00  0.00    -0.089 HD
ENDBRANCH  26  27
ENDBRANCH  25  26
ENDBRANCH  24  25
ENDBRANCH  23  24
ENDBRANCH  20  23
ENDBRANCH  17  20
ENDBRANCH   1  16
TORSDOF 13
REMARK  Name = ../refined-set-2016/1sv3/1sv3_pocket.pdb
REMARK  123 active torsions:
REMARK  status: ('A' for Active; 'I' for Inactive)
REMARK    1  A    between atoms: _1  and  _3
REMARK    2  A    between atoms: _3  and  _4
REMARK    3  A    between atoms: _3  and  _6
REMARK    4  A    between atoms: _6  and  _7
REMARK    5  A    between atoms: _10  and  _12
REMARK    6  A    between atoms: _12  and  _13
REMARK    7  A    between atoms: _12  and  _15
REMARK    8  A    between atoms: _15  and  _16
REMARK    9  A    between atoms: _19  and  _21
REMARK   10  A    between atoms: _21  and  _22
REMARK   11  A    between atoms: _21  and  _24
REMARK   12  A    between atoms: _24  and  _25
REMARK   13  A    between atoms: _31  and  _33
REMARK   14  A    between atoms: _33  and  _34
REMARK   15  A    between atoms: _36  and  _38
REMARK   16  A    between atoms: _38  and  _39
REMARK   17  A    between atoms: _38  and  _41
REMARK   18  A    between atoms: _41  and  _42
REMARK   19  A    between atoms: _42  and  _43
REMARK   20  A    between atoms: _43  and  _44
REMARK   21  A    between atoms: _44  and  _45
REMARK   22  A    between atoms: _49  and  _51
REMARK   23  A    between atoms: _51  and  _52
REMARK   24  A    between atoms: _51  and  _54
REMARK   25  A    between atoms: _54  and  _55
REMARK   26  A    between atoms: _58  and  _60
REMARK   27  A    between atoms: _60  and  _61
REMARK   28  A    between atoms: _60  and  _63
REMARK   29  A    between atoms: _63  and  _64
REMARK   30  A    between atoms: _67  and  _69
REMARK   31  A    between atoms: _69  and  _70
REMARK   32  A    between atoms: _73  and  _75
REMARK   33  A    between atoms: _75  and  _76
REMARK   34  A    between atoms: _75  and  _78
REMARK   35  A    between atoms: _78  and  _79
REMARK   36  A    between atoms: _83  and  _84
REMARK   37  A    between atoms: _89  and  _91
REMARK   38  A    between atoms: _91  and  _92
REMARK   39  A    between atoms: _91  and  _94
REMARK   40  A    between atoms: _94  and  _95
REMARK   41  A    between atoms: _97  and  _99
REMARK   42  A    between atoms: _99  and  _100
REMARK   43  A    between atoms: _99  and  _102
REMARK   44  A    between atoms: _102  and  _103
REMARK   45  A    between atoms: _108  and  _109
REMARK   46  A    between atoms: _111  and  _113
REMARK   47  A    between atoms: _113  and  _114
REMARK   48  A    between atoms: _113  and  _116
REMARK   49  A    between atoms: _116  and  _117
REMARK   50  A    between atoms: _119  and  _121
REMARK   51  A    between atoms: _121  and  _122
REMARK   52  A    between atoms: _121  and  _124
REMARK   53  A    between atoms: _124  and  _125
REMARK   54  A    between atoms: _127  and  _129
REMARK   55  A    between atoms: _129  and  _130
REMARK   56  A    between atoms: _129  and  _132
REMARK   57  A    between atoms: _132  and  _133
REMARK   58  A    between atoms: _138  and  _139
REMARK   59  A    between atoms: _141  and  _143
REMARK   60  A    between atoms: _143  and  _144
REMARK   61  A    between atoms: _143  and  _146
REMARK   62  A    between atoms: _146  and  _147
REMARK   63  A    between atoms: _152  and  _153
REMARK   64  A    between atoms: _155  and  _157
REMARK   65  A    between atoms: _157  and  _158
REMARK   66  A    between atoms: _157  and  _160
REMARK   67  A    between atoms: _160  and  _161
REMARK   68  A    between atoms: _161  and  _219
REMARK   69  A    between atoms: _162  and  _164
REMARK   70  A    between atoms: _164  and  _165
REMARK   71  A    between atoms: _167  and  _169
REMARK   72  A    between atoms: _169  and  _170
REMARK   73  A    between atoms: _169  and  _172
REMARK   74  A    between atoms: _172  and  _173
REMARK   75  A    between atoms: _183  and  _185
REMARK   76  A    between atoms: _185  and  _186
REMARK   77  A    between atoms: _188  and  _190
REMARK   78  A    between atoms: _190  and  _191
REMARK   79  A    between atoms: _190  and  _193
REMARK   80  A    between atoms: _193  and  _194
REMARK   81  A    between atoms: _197  and  _199
REMARK   82  A    between atoms: _199  and  _200
REMARK   83  A    between atoms: _199  and  _202
REMARK   84  A    between atoms: _202  and  _203
REMARK   85  A    between atoms: _206  and  _208
REMARK   86  A    between atoms: _208  and  _209
REMARK   87  A    between atoms: _208  and  _211
REMARK   88  A    between atoms: _213  and  _215
REMARK   89  A    between atoms: _215  and  _216
REMARK   90  A    between atoms: _215  and  _218
REMARK   91  A    between atoms: _218  and  _219
REMARK   92  A    between atoms: _220  and  _222
REMARK   93  A    between atoms: _222  and  _223
REMARK   94  A    between atoms: _222  and  _225
REMARK   95  A    between atoms: _225  and  _226
REMARK   96  A    between atoms: _232  and  _234
REMARK   97  A    between atoms: _234  and  _235
REMARK   98  A    between atoms: _234  and  _237
REMARK   99  A    between atoms: _237  and  _238
REMARK  100  A    between atoms: _243  and  _245
REMARK  101  A    between atoms: _245  and  _246
REMARK  102  A    between atoms: _245  and  _248
REMARK  103  A    between atoms: _248  and  _249
REMARK  104  A    between atoms: _252  and  _254
REMARK  105  A    between atoms: _254  and  _255
REMARK  106  A    between atoms: _254  and  _257
REMARK  107  A    between atoms: _257  and  _258
REMARK  108  A    between atoms: _263  and  _264
REMARK  109  A    between atoms: _266  and  _268
REMARK  110  A    between atoms: _268  and  _269
REMARK  111  A    between atoms: _268  and  _271
REMARK  112  A    between atoms: _271  and  _272
REMARK  113  A    between atoms: _272  and  _273
REMARK  114  A    between atoms: _273  and  _274
REMARK  115  A    between atoms: _274  and  _275
REMARK  116  A    between atoms: _279  and  _281
REMARK  117  A    between atoms: _281  and  _282
REMARK  118  A    between atoms: _285  and  _287
REMARK  119  A    between atoms: _287  and  _288
REMARK  120  A    between atoms: _291  and  _293
REMARK  121  A    between atoms: _293  and  _294
REMARK  122  A    between atoms: _293  and  _296
REMARK  123  A    between atoms: _296  and  _297
REMARK                            x       y       z     vdW  Elec       q    Type
REMARK                         _______ _______ _______ _____ _____    ______ ____
ROOT
ATOM      1  CA  ILE A   1      45.217  30.513  -3.380  0.00  0.00    +0.133 C 
ENDROOT
BRANCH   1   2
ATOM      2  N   ILE A   1      44.190  31.551  -3.221  0.00  0.00    -0.239 NA
ATOM      3  H   ILE A   1      44.033  31.957  -2.276  0.00  0.00    +0.142 HD
ENDBRANCH   1   2
BRANCH   1   4
ATOM      4  CB  ILE A   1      45.929  30.224  -2.052  0.00  0.00    +0.023 C 
ATOM      5  CG2 ILE A   1      46.845  29.009  -2.171  0.00  0.00    +0.002 C 
BRANCH   4   6
ATOM      6  CG1 ILE A   1      46.744  31.468  -1.637  0.00  0.00    +0.002 C 
ATOM      7  CD1 ILE A   1      47.220  31.424  -0.241  0.00  0.00    +0.000 C 
ENDBRANCH   4   6
ENDBRANCH   1   4
BRANCH   1   8
ATOM      8  C   ILE A   1      44.621  29.228  -3.939  0.00  0.00    +0.224 C 
ATOM      9  O   ILE A   1      45.187  28.632  -4.853  0.00  0.00    -0.287 OA
ENDBRANCH   1   8
TORSDOF 4
REMARK  Name = ../refined-set-2016/1sv3/1sv3_pocket.pdb
REMARK  123 active torsions:
REMARK  status: ('A' for Active; 'I' for Inactive)
REMARK    1  A    between atoms: _1  and  _3
REMARK    2  A    between atoms: _3  and  _4
REMARK    3  A    between atoms: _3  and  _6
REMARK    4  A    between atoms: _6  and  _7
REMARK    5  A    between atoms: _10  and  _12
REMARK    6  A    between atoms: _12  and  _13
REMARK    7  A    between atoms: _12  and  _15
REMARK    8  A    between atoms: _15  and  _16
REMARK    9  A    between atoms: _19  and  _21
REMARK   10  A    between atoms: _21  and  _22
REMARK   11  A    between atoms: _21  and  _24
REMARK   12  A    between atoms: _24  and  _25
REMARK   13  A    between atoms: _31  and  _33
REMARK   14  A    between atoms: _33  and  _34
REMARK   15  A    between atoms: _36  and  _38
REMARK   16  A    between atoms: _38  and  _39
REMARK   17  A    between atoms: _38  and  _41
REMARK   18  A    between atoms: _41  and  _42
REMARK   19  A    between atoms: _42  and  _43
REMARK   20  A    between atoms: _43  and  _44
REMARK   21  A    between atoms: _44  and  _45
REMARK   22  A    between atoms: _49  and  _51
REMARK   23  A    between atoms: _51  and  _52
REMARK   24  A    between atoms: _51  and  _54
REMARK   25  A    between atoms: _54  and  _55
REMARK   26  A    between atoms: _58  and  _60
REMARK   27  A    between atoms: _60  and  _61
REMARK   28  A    between atoms: _60  and  _63
REMARK   29  A    between atoms: _63  and  _64
REMARK   30  A    between atoms: _67  and  _69
REMARK   31  A    between atoms: _69  and  _70
REMARK   32  A    between atoms: _73  and  _75
REMARK   33  A    between atoms: _75  and  _76
REMARK   34  A    between atoms: _75  and  _78
REMARK   35  A    between atoms: _78  and  _79
REMARK   36  A    between atoms: _83  and  _84
REMARK   37  A    between atoms: _89  and  _91
REMARK   38  A    between atoms: _91  and  _92
REMARK   39  A    between atoms: _91  and  _94
REMARK   40  A    between atoms: _94  and  _95
REMARK   41  A    between atoms: _97  and  _99
REMARK   42  A    between atoms: _99  and  _100
REMARK   43  A    between atoms: _99  and  _102
REMARK   44  A    between atoms: _102  and  _103
REMARK   45  A    between atoms: _108  and  _109
REMARK   46  A    between atoms: _111  and  _113
REMARK   47  A    between atoms: _113  and  _114
REMARK   48  A    between atoms: _113  and  _116
REMARK   49  A    between atoms: _116  and  _117
REMARK   50  A    between atoms: _119  and  _121
REMARK   51  A    between atoms: _121  and  _122
REMARK   52  A    between atoms: _121  and  _124
REMARK   53  A    between atoms: _124  and  _125
REMARK   54  A    between atoms: _127  and  _129
REMARK   55  A    between atoms: _129  and  _130
REMARK   56  A    between atoms: _129  and  _132
REMARK   57  A    between atoms: _132  and  _133
REMARK   58  A    between atoms: _138  and  _139
REMARK   59  A    between atoms: _141  and  _143
REMARK   60  A    between atoms: _143  and  _144
REMARK   61  A    between atoms: _143  and  _146
REMARK   62  A    between atoms: _146  and  _147
REMARK   63  A    between atoms: _152  and  _153
REMARK   64  A    between atoms: _155  and  _157
REMARK   65  A    between atoms: _157  and  _158
REMARK   66  A    between atoms: _157  and  _160
REMARK   67  A    between atoms: _160  and  _161
REMARK   68  A    between atoms: _161  and  _219
REMARK   69  A    between atoms: _162  and  _164
REMARK   70  A    between atoms: _164  and  _165
REMARK   71  A    between atoms: _167  and  _169
REMARK   72  A    between atoms: _169  and  _170
REMARK   73  A    between atoms: _169  and  _172
REMARK   74  A    between atoms: _172  and  _173
REMARK   75  A    between atoms: _183  and  _185
REMARK   76  A    between atoms: _185  and  _186
REMARK   77  A    between atoms: _188  and  _190
REMARK   78  A    between atoms: _190  and  _191
REMARK   79  A    between atoms: _190  and  _193
REMARK   80  A    between atoms: _193  and  _194
REMARK   81  A    between atoms: _197  and  _199
REMARK   82  A    between atoms: _199  and  _200
REMARK   83  A    between atoms: _199  and  _202
REMARK   84  A    between atoms: _202  and  _203
REMARK   85  A    between atoms: _206  and  _208
REMARK   86  A    between atoms: _208  and  _209
REMARK   87  A    between atoms: _208  and  _211
REMARK   88  A    between atoms: _213  and  _215
REMARK   89  A    between atoms: _215  and  _216
REMARK   90  A    between atoms: _215  and  _218
REMARK   91  A    between atoms: _218  and  _219
REMARK   92  A    between atoms: _220  and  _222
REMARK   93  A    between atoms: _222  and  _223
REMARK   94  A    between atoms: _222  and  _225
REMARK   95  A    between atoms: _225  and  _226
REMARK   96  A    between atoms: _232  and  _234
REMARK   97  A    between atoms: _234  and  _235
REMARK   98  A    between atoms: _234  and  _237
REMARK   99  A    between atoms: _237  and  _238
REMARK  100  A    between atoms: _243  and  _245
REMARK  101  A    between atoms: _245  and  _246
REMARK  102  A    between atoms: _245  and  _248
REMARK  103  A    between atoms: _248  and  _249
REMARK  104  A    between atoms: _252  and  _254
REMARK  105  A    between atoms: _254  and  _255
REMARK  106  A    between atoms: _254  and  _257
REMARK  107  A    between atoms: _257  and  _258
REMARK  108  A    between atoms: _263  and  _264
REMARK  109  A    between atoms: _266  and  _268
REMARK  110  A    between atoms: _268  and  _269
REMARK  111  A    between atoms: _268  and  _271
REMARK  112  A    between atoms: _271  and  _272
REMARK  113  A    between atoms: _272  and  _273
REMARK  114  A    between atoms: _273  and  _274
REMARK  115  A    between atoms: _274  and  _275
REMARK  116  A    between atoms: _279  and  _281
REMARK  117  A    between atoms: _281  and  _282
REMARK  118  A    between atoms: _285  and  _287
REMARK  119  A    between atoms: _287  and  _288
REMARK  120  A    between atoms: _291  and  _293
REMARK  121  A    between atoms: _293  and  _294
REMARK  122  A    between atoms: _293  and  _296
REMARK  123  A    between atoms: _296  and  _297
REMARK                            x       y       z     vdW  Elec       q    Type
REMARK                         _______ _______ _______ _____ _____    ______ ____
ROOT
ATOM      1  CA  TYR A   6      50.982  27.076   2.245  0.00  0.00    +0.153 C 
ENDROOT
BRANCH   1   2
ATOM      2  C   TYR A   6      50.969  27.757   3.617  0.00  0.00    +0.241 C 
ATOM      3  N   SER A   7      50.495  27.047   4.630  0.00  0.00    -0.295 N 
ATOM      4  H   SER A   7      50.187  26.066   4.472  0.00  0.00    +0.150 HD
ATOM      5  O   TYR A   6      51.358  28.933   3.766  0.00  0.00    -0.273 OA
BRANCH   3   6
ATOM      6  CA  SER A   7      50.401  27.629   5.966  0.00  0.00    +0.178 C 
BRANCH   6   7
ATOM      7  C   SER A   7      51.625  27.385   6.823  0.00  0.00    +0.243 C 
ATOM      8  O   SER A   7      51.802  28.020   7.866  0.00  0.00    -0.273 OA
ATOM      9  N   SER A   8      52.458  26.430   6.425  0.00  0.00    -0.295 N 
ATOM     10  H   SER A   8      52.239  25.906   5.554  0.00  0.00    +0.150 HD
BRANCH   9  11
ATOM     11  CA  SER A   8      53.665  26.090   7.161  0.00  0.00    +0.178 C 
BRANCH  11  12
ATOM     12  C   SER A   8      54.794  25.640   6.232  0.00  0.00    +0.243 C 
ATOM     13  O   SER A   8      55.634  24.813   6.602  0.00  0.00    -0.273 OA
ATOM     14  N   TYR A   9      54.843  26.242   5.052  0.00  0.00    -0.298 N 
ATOM     15  H   TYR A   9      54.174  27.013   4.854  0.00  0.00    +0.150 HD
BRANCH  14  16
ATOM     16  CA  TYR A   9      55.798  25.863   4.027  0.00  0.00    +0.141 C 
BRANCH  16  17
ATOM     17  C   TYR A   9      57.087  26.670   4.091  0.00  0.00    +0.227 C 
ATOM     18  O   TYR A   9      57.050  27.896   4.140  0.00  0.00    -0.286 OA
ENDBRANCH  16  17
BRANCH  16  19
ATOM     19  CB  TYR A   9      55.145  26.039   2.664  0.00  0.00    +0.054 C 
BRANCH  19  20
ATOM     20  CG  TYR A   9      55.945  25.522   1.488  0.00  0.00    -0.020 A 
ATOM     21  CD2 TYR A   9      56.957  26.259   0.915  0.00  0.00    -0.001 A 
ATOM     22  CE2 TYR A   9      57.668  25.798  -0.189  0.00  0.00    +0.036 A 
ATOM     23  CZ  TYR A   9      57.301  24.630  -0.760  0.00  0.00    +0.134 A 
ATOM     24  CE1 TYR A   9      56.286  23.886  -0.251  0.00  0.00    +0.036 A 
ATOM     25  CD1 TYR A   9      55.600  24.335   0.878  0.00  0.00    -0.001 A 
BRANCH  23  26
ATOM     26  OH  TYR A   9      57.961  24.166  -1.878  0.00  0.00    -0.506 OA
ATOM     27  HH  TYR A   9      58.670  24.809  -2.132  0.00  0.00    +0.292 HD
ENDBRANCH  23  26
ENDBRANCH  19  20
ENDBRANCH  16  19
ENDBRANCH  14  16
ENDBRANCH  11  12
BRANCH  11  28
ATOM     28  CB  SER A   8      53.360  24.970   8.140  0.00  0.00    +0.166 C 
BRANCH  28  29
ATOM     29  OG  SER A   8      53.026  23.751   7.471  0.00  0.00    -0.380 OA
ATOM     30  H   SER A   8      53.786  23.468   6.904  0.00  0.00    +0.211 HD
ENDBRANCH  28  29
ENDBRANCH  11  28
ENDBRANCH   9  11
ENDBRANCH   6   7
BRANCH   6  31
ATOM     31  CB  SER A   7      49.152  27.095   6.686  0.00  0.00    +0.166 C 
BRANCH  31  32
ATOM     32  OG  SER A   7      49.172  25.694   6.745  0.00  0.00    -0.380 OA
ATOM     33  H   SER A   7      49.977  25.397   7.239  0.00  0.00    +0.211 HD
ENDBRANCH  31  32
ENDBRANCH   6  31
ENDBRANCH   3   6
ENDBRANCH   1   2
BRANCH   1  35
ATOM     34  C   SER A   5      50.722  24.733   1.669  0.00  0.00    +0.243 C 
ATOM     35  N   TYR A   6      50.200  25.851   2.168  0.00  0.00    -0.297 N 
ATOM     36  H   TYR A   6      49.217  25.849   2.508  0.00  0.00    +0.150 HD
ATOM     37  O   SER A   5      51.936  24.638   1.329  0.00  0.00    -0.273 OA
BRANCH  34  38
ATOM     38  CA  SER A   5      49.776  23.520   1.521  0.00  0.00    +0.178 C 
BRANCH  38  41
ATOM     39  C   PRO A   4      49.053  23.088   3.786  0.00  0.00    +0.241 C 
ATOM     40  O   PRO A   4      50.222  22.950   4.158  0.00  0.00    -0.273 OA
ATOM     41  N   SER A   5      48.724  23.388   2.538  0.00  0.00    -0.295 N 
ATOM     42  H   SER A   5      47.727  23.529   2.280  0.00  0.00    +0.150 HD
BRANCH  39  45
ATOM     43  C   ILE A   3      45.679  23.777   4.398  0.00  0.00    +0.244 C 
ATOM     44  N   PRO A   4      46.592  22.829   4.358  0.00  0.00    -0.272 N 
ATOM     45  CA  PRO A   4      47.957  22.876   4.827  0.00  0.00    +0.152 C 
ATOM     46  CB  PRO A   4      48.112  21.469   5.375  0.00  0.00    +0.031 C 
ATOM     47  CG  PRO A   4      47.429  20.667   4.353  0.00  0.00    +0.024 C 
ATOM     48  CD  PRO A   4      46.203  21.460   3.957  0.00  0.00    +0.094 C 
ATOM     49  O   ILE A   3      44.533  23.501   4.056  0.00  0.00    -0.273 OA
BRANCH  43  50
ATOM     50  CA  ILE A   3      46.012  25.202   4.894  0.00  0.00    +0.149 C 
BRANCH  50  52
ATOM     51  C   ALA A   2      46.616  26.561   2.945  0.00  0.00    +0.241 C 
ATOM     52  N   ILE A   3      45.681  26.007   3.731  0.00  0.00    -0.297 N 
ATOM     53  H   ILE A   3      44.679  26.160   3.499  0.00  0.00    +0.150 HD
ATOM     54  O   ALA A   2      47.814  26.519   3.175  0.00  0.00    -0.273 OA
BRANCH  51  55
ATOM     55  CA  ALA A   2      46.118  27.204   1.693  0.00  0.00    +0.149 C 
ATOM     56  CB  ALA A   2      45.503  28.580   1.999  0.00  0.00    +0.031 C 
BRANCH  55  58
ATOM     57  C   LEU A   1      45.397  25.059   0.799  0.00  0.00    +0.238 C 
ATOM     58  N   ALA A   2      45.128  26.329   1.081  0.00  0.00    -0.297 N 
ATOM     59  H   ALA A   2      44.185  26.708   0.859  0.00  0.00    +0.150 HD
ATOM     60  O   LEU A   1      46.479  24.548   1.067  0.00  0.00    -0.274 OA
BRANCH  57  61
ATOM     61  CA  LEU A   1      44.317  24.240   0.107  0.00  0.00    +0.145 C 
BRANCH  61  62
ATOM     62  N   LEU A   1      44.870  23.601  -1.059  0.00  0.00    -0.238 NA
ATOM     63  H   LEU A   1      45.066  22.580  -1.028  0.00  0.00    +0.142 HD
ENDBRANCH  61  62
BRANCH  61  64
ATOM     64  CB  LEU A   1      43.792  23.166   1.064  0.00  0.00    +0.026 C 
BRANCH  64  65
ATOM     65  CG  LEU A   1      42.605  22.414   0.505  0.00  0.00    +0.002 C 
ATOM     66  CD2 LEU A   1      42.346  21.127   1.273  0.00  0.00    +0.000 C 
ATOM     67  CD1 LEU A   1      41.348  23.315   0.558  0.00  0.00    +0.000 C 
ENDBRANCH  64  65
ENDBRANCH  61  64
ENDBRANCH  57  61
ENDBRANCH  55  58
ENDBRANCH  51  55
ENDBRANCH  50  52
BRANCH  50  68
ATOM     68  CB  ILE A   3      45.106  25.539   6.096  0.00  0.00    +0.027 C 
ATOM     69  CG2 ILE A   3      45.495  24.646   7.304  0.00  0.00    +0.002 C 
BRANCH  68  70
ATOM     70  CG1 ILE A   3      45.218  27.026   6.451  0.00  0.00    +0.002 C 
ATOM     71  CD1 ILE A   3      44.221  27.494   7.487  0.00  0.00    +0.000 C 
ENDBRANCH  68  70
ENDBRANCH  50  68
ENDBRANCH  43  50
ENDBRANCH  39  45
ENDBRANCH  38  41
BRANCH  38  72
ATOM     72  CB  SER A   5      49.179  23.479   0.113  0.00  0.00    +0.166 C 
BRANCH  72  73
ATOM     73  OG  SER A   5      48.550  22.199  -0.086  0.00  0.00    -0.380 OA
ATOM     74  H   SER A   5      49.225  21.482   0.014  0.00  0.00    +0.211 HD
ENDBRANCH  72  73
ENDBRANCH  38  72
ENDBRANCH  34  38
ENDBRANCH   1  35
BRANCH   1  75
ATOM     75  CB  TYR A   6      50.485  28.076   1.215  0.00  0.00    +0.055 C 
BRANCH  75  76
ATOM     76  CG  TYR A   6      50.611  27.620  -0.239  0.00  0.00    -0.020 A 
ATOM     77  CD2 TYR A   6      51.821  27.701  -0.915  0.00  0.00    -0.001 A 
ATOM     78  CE2 TYR A   6      51.944  27.306  -2.233  0.00  0.00    +0.036 A 
ATOM     79  CZ  TYR A   6      50.875  26.821  -2.915  0.00  0.00    +0.134 A 
ATOM     80  CE1 TYR A   6      49.654  26.741  -2.239  0.00  0.00    +0.036 A 
ATOM     81  CD1 TYR A   6      49.533  27.134  -0.933  0.00  0.00    -0.001 A 
BRANCH  79  82
ATOM     82  OH  TYR A   6      51.039  26.462  -4.231  0.00  0.00    -0.506 OA
ATOM     83  HH  TYR A   6      51.983  26.602  -4.495  0.00  0.00    +0.292 HD
ENDBRANCH  79  82
ENDBRANCH  75  76
ENDBRANCH   1  75
TORSDOF 33
REMARK  Name = ../refined-set-2016/1sv3/1sv3_pocket.pdb
REMARK  123 active torsions:
REMARK  status: ('A' for Active; 'I' for Inactive)
REMARK    1  A    between atoms: _1  and  _3
REMARK    2  A    between atoms: _3  and  _4
REMARK    3  A    between atoms: _3  and  _6
REMARK    4  A    between atoms: _6  and  _7
REMARK    5  A    between atoms: _10  and  _12
REMARK    6  A    between atoms: _12  and  _13
REMARK    7  A    between atoms: _12  and  _15
REMARK    8  A    between atoms: _15  and  _16
REMARK    9  A    between atoms: _19  and  _21
REMARK   10  A    between atoms: _21  and  _22
REMARK   11  A    between atoms: _21  and  _24
REMARK   12  A    between atoms: _24  and  _25
REMARK   13  A    between atoms: _31  and  _33
REMARK   14  A    between atoms: _33  and  _34
REMARK   15  A    between atoms: _36  and  _38
REMARK   16  A    between atoms: _38  and  _39
REMARK   17  A    between atoms: _38  and  _41
REMARK   18  A    between atoms: _41  and  _42
REMARK   19  A    between atoms: _42  and  _43
REMARK   20  A    between atoms: _43  and  _44
REMARK   21  A    between atoms: _44  and  _45
REMARK   22  A    between atoms: _49  and  _51
REMARK   23  A    between atoms: _51  and  _52
REMARK   24  A    between atoms: _51  and  _54
REMARK   25  A    between atoms: _54  and  _55
REMARK   26  A    between atoms: _58  and  _60
REMARK   27  A    between atoms: _60  and  _61
REMARK   28  A    between atoms: _60  and  _63
REMARK   29  A    between atoms: _63  and  _64
REMARK   30  A    between atoms: _67  and  _69
REMARK   31  A    between atoms: _69  and  _70
REMARK   32  A    between atoms: _73  and  _75
REMARK   33  A    between atoms: _75  and  _76
REMARK   34  A    between atoms: _75  and  _78
REMARK   35  A    between atoms: _78  and  _79
REMARK   36  A    between atoms: _83  and  _84
REMARK   37  A    between atoms: _89  and  _91
REMARK   38  A    between atoms: _91  and  _92
REMARK   39  A    between atoms: _91  and  _94
REMARK   40  A    between atoms: _94  and  _95
REMARK   41  A    between atoms: _97  and  _99
REMARK   42  A    between atoms: _99  and  _100
REMARK   43  A    between atoms: _99  and  _102
REMARK   44  A    between atoms: _102  and  _103
REMARK   45  A    between atoms: _108  and  _109
REMARK   46  A    between atoms: _111  and  _113
REMARK   47  A    between atoms: _113  and  _114
REMARK   48  A    between atoms: _113  and  _116
REMARK   49  A    between atoms: _116  and  _117
REMARK   50  A    between atoms: _119  and  _121
REMARK   51  A    between atoms: _121  and  _122
REMARK   52  A    between atoms: _121  and  _124
REMARK   53  A    between atoms: _124  and  _125
REMARK   54  A    between atoms: _127  and  _129
REMARK   55  A    between atoms: _129  and  _130
REMARK   56  A    between atoms: _129  and  _132
REMARK   57  A    between atoms: _132  and  _133
REMARK   58  A    between atoms: _138  and  _139
REMARK   59  A    between atoms: _141  and  _143
REMARK   60  A    between atoms: _143  and  _144
REMARK   61  A    between atoms: _143  and  _146
REMARK   62  A    between atoms: _146  and  _147
REMARK   63  A    between atoms: _152  and  _153
REMARK   64  A    between atoms: _155  and  _157
REMARK   65  A    between atoms: _157  and  _158
REMARK   66  A    between atoms: _157  and  _160
REMARK   67  A    between atoms: _160  and  _161
REMARK   68  A    between atoms: _161  and  _219
REMARK   69  A    between atoms: _162  and  _164
REMARK   70  A    between atoms: _164  and  _165
REMARK   71  A    between atoms: _167  and  _169
REMARK   72  A    between atoms: _169  and  _170
REMARK   73  A    between atoms: _169  and  _172
REMARK   74  A    between atoms: _172  and  _173
REMARK   75  A    between atoms: _183  and  _185
REMARK   76  A    between atoms: _185  and  _186
REMARK   77  A    between atoms: _188  and  _190
REMARK   78  A    between atoms: _190  and  _191
REMARK   79  A    between atoms: _190  and  _193
REMARK   80  A    between atoms: _193  and  _194
REMARK   81  A    between atoms: _197  and  _199
REMARK   82  A    between atoms: _199  and  _200
REMARK   83  A    between atoms: _199  and  _202
REMARK   84  A    between atoms: _202  and  _203
REMARK   85  A    between atoms: _206  and  _208
REMARK   86  A    between atoms: _208  and  _209
REMARK   87  A    between atoms: _208  and  _211
REMARK   88  A    between atoms: _213  and  _215
REMARK   89  A    between atoms: _215  and  _216
REMARK   90  A    between atoms: _215  and  _218
REMARK   91  A    between atoms: _218  and  _219
REMARK   92  A    between atoms: _220  and  _222
REMARK   93  A    between atoms: _222  and  _223
REMARK   94  A    between atoms: _222  and  _225
REMARK   95  A    between atoms: _225  and  _226
REMARK   96  A    between atoms: _232  and  _234
REMARK   97  A    between atoms: _234  and  _235
REMARK   98  A    between atoms: _234  and  _237
REMARK   99  A    between atoms: _237  and  _238
REMARK  100  A    between atoms: _243  and  _245
REMARK  101  A    between atoms: _245  and  _246
REMARK  102  A    between atoms: _245  and  _248
REMARK  103  A    between atoms: _248  and  _249
REMARK  104  A    between atoms: _252  and  _254
REMARK  105  A    between atoms: _254  and  _255
REMARK  106  A    between atoms: _254  and  _257
REMARK  107  A    between atoms: _257  and  _258
REMARK  108  A    between atoms: _263  and  _264
REMARK  109  A    between atoms: _266  and  _268
REMARK  110  A    between atoms: _268  and  _269
REMARK  111  A    between atoms: _268  and  _271
REMARK  112  A    between atoms: _271  and  _272
REMARK  113  A    between atoms: _272  and  _273
REMARK  114  A    between atoms: _273  and  _274
REMARK  115  A    between atoms: _274  and  _275
REMARK  116  A    between atoms: _279  and  _281
REMARK  117  A    between atoms: _281  and  _282
REMARK  118  A    between atoms: _285  and  _287
REMARK  119  A    between atoms: _287  and  _288
REMARK  120  A    between atoms: _291  and  _293
REMARK  121  A    between atoms: _293  and  _294
REMARK  122  A    between atoms: _293  and  _296
REMARK  123  A    between atoms: _296  and  _297
REMARK                            x       y       z     vdW  Elec       q    Type
REMARK                         _______ _______ _______ _____ _____    ______ ____
ROOT
ATOM      1  CA  CYS A   2      54.861  30.620   4.184  0.00  0.00    +0.160 C 
ENDROOT
BRANCH   1   2
ATOM      2  C   CYS A   2      54.029  30.229   5.369  0.00  0.00    +0.242 C 
ATOM      3  O   CYS A   2      54.164  29.109   5.902  0.00  0.00    -0.273 OA
ATOM      4  N   PHE A   3      53.089  31.107   5.681  0.00  0.00    -0.295 N 
ATOM      5  H   PHE A   3      53.055  32.008   5.163  0.00  0.00    +0.150 HD
BRANCH   4   6
ATOM      6  CA  PHE A   3      52.112  30.863   6.709  0.00  0.00    +0.176 C 
BRANCH   6   7
ATOM      7  C   PHE A   3      52.640  31.288   8.040  0.00  0.00    +0.243 C 
ATOM      8  O   PHE A   3      51.913  31.230   9.044  0.00  0.00    -0.273 OA
ATOM      9  N   TRP A   4      53.879  31.761   8.065  0.00  0.00    -0.297 N 
ATOM     10  H   TRP A   4      54.418  31.857   7.181  0.00  0.00    +0.150 HD
BRANCH   9  11
ATOM     11  CA  TRP A   4      54.477  32.141   9.318  0.00  0.00    +0.153 C 
BRANCH  11  12
ATOM     12  C   TRP A   4      55.965  32.490   9.195  0.00  0.00    +0.241 C 
ATOM     13  O   TRP A   4      56.764  32.118  10.047  0.00  0.00    -0.273 OA
ATOM     14  N   GLY A   5      56.209  33.408   8.257  0.00  0.00    -0.296 N 
ATOM     15  H   GLY A   5      55.405  33.793   7.722  0.00  0.00    +0.150 HD
BRANCH  14  16
ATOM     16  CA  GLY A   5      57.523  33.890   7.950  0.00  0.00    +0.163 C 
BRANCH  16  17
ATOM     17  C   GLY A   5      58.278  34.408   9.152  0.00  0.00    +0.229 C 
ATOM     18  O   GLY A   5      57.834  34.261  10.286  0.00  0.00    -0.286 OA
ENDBRANCH  16  17
ENDBRANCH  14  16
ENDBRANCH  11  12
BRANCH  11  19
ATOM     19  CB  TRP A   4      54.299  30.957  10.245  0.00  0.00    +0.057 C 
BRANCH  19  20
ATOM     20  CG  TRP A   4      53.868  31.263  11.593  0.00  0.00    -0.002 A 
ATOM     21  CD2 TRP A   4      54.686  31.228  12.750  0.00  0.00    +0.013 A 
ATOM     22  CE2 TRP A   4      53.877  31.557  13.848  0.00  0.00    +0.056 A 
ATOM     23  CZ2 TRP A   4      54.374  31.622  15.148  0.00  0.00    +0.017 A 
ATOM     24  CH2 TRP A   4      55.697  31.359  15.324  0.00  0.00    +0.001 A 
ATOM     25  CZ3 TRP A   4      56.527  31.036  14.247  0.00  0.00    +0.000 A 
ATOM     26  NE1 TRP A   4      52.610  31.770  13.372  0.00  0.00    -0.352 N 
ATOM     27  HE1 TRP A   4      51.784  32.033  13.947  0.00  0.00    +0.166 HD
ATOM     28  CE3 TRP A   4      56.040  30.970  12.970  0.00  0.00    +0.001 A 
ATOM     29  CD1 TRP A   4      52.609  31.579  12.013  0.00  0.00    +0.068 A 
ENDBRANCH  19  20
ENDBRANCH  11  19
ENDBRANCH   9  11
ENDBRANCH   6   7
ENDBRANCH   4   6
ENDBRANCH   1   2
BRANCH   1  32
ATOM     30  C   CYS A   1      56.701  32.077   4.854  0.00  0.00    +0.239 C 
ATOM     31  O   CYS A   1      55.930  33.029   5.021  0.00  0.00    -0.274 OA
ATOM     32  N   CYS A   2      56.285  30.877   4.492  0.00  0.00    -0.296 N 
ATOM     33  H   CYS A   2      56.971  30.098   4.422  0.00  0.00    +0.150 HD
BRANCH  30  34
ATOM     34  CA  CYS A   1      58.191  32.305   5.074  0.00  0.00    +0.149 C 
BRANCH  34  35
ATOM     35  N   CYS A   1      59.063  31.136   5.124  0.00  0.00    -0.238 NA
ATOM     36  H   CYS A   1      59.115  30.512   4.294  0.00  0.00    +0.142 HD
ENDBRANCH  34  35
BRANCH  34  37
ATOM     37  CB  CYS A   1      58.743  33.302   4.027  0.00  0.00    +0.053 C 
BRANCH  37  38
ATOM     38  CG  CYS A   1      60.080  33.857   4.464  0.00  0.00    -0.020 A 
ATOM     39  CD2 CYS A   1      60.155  34.941   5.302  0.00  0.00    -0.001 A 
ATOM     40  CE2 CYS A   1      61.363  35.406   5.739  0.00  0.00    +0.036 A 
ATOM     41  CZ  CYS A   1      62.521  34.763   5.385  0.00  0.00    +0.134 A 
ATOM     42  CE1 CYS A   1      62.458  33.685   4.564  0.00  0.00    +0.036 A 
ATOM     43  CD1 CYS A   1      61.262  33.231   4.125  0.00  0.00    -0.001 A 
BRANCH  41  44
ATOM     44  OH  CYS A   1      63.705  35.320   5.867  0.00  0.00    -0.506 OA
ATOM     45  HH  CYS A   1      64.474  34.780   5.554  0.00  0.00    +0.292 HD
ENDBRANCH  41  44
ENDBRANCH  37  38
ENDBRANCH  34  37
ENDBRANCH  30  34
ENDBRANCH   1  32
BRANCH   1  46
ATOM     46  CB  CYS A   2      54.677  29.502   3.184  0.00  0.00    +0.098 C 
BRANCH  46  47
ATOM     47  SG  CYS A   2      55.377  29.900   1.616  0.00  0.00    -0.080 S 
BRANCH  47  48
ATOM     48  SG  CYS A   2      54.571  31.746   1.066  0.00  0.00    -0.080 S 
BRANCH  48  49
ATOM     49  CB  CYS A   2      55.798  32.955   1.584  0.00  0.00    +0.098 C 
BRANCH  49  50
ATOM     50  CA  CYS A   2      55.832  34.171   0.697  0.00  0.00    +0.160 C 
BRANCH  50  51
ATOM     51  C   CYS A   2      56.721  35.192   1.318  0.00  0.00    +0.242 C 
ATOM     52  O   CYS A   2      56.240  36.041   2.037  0.00  0.00    -0.273 OA
ATOM     53  N   PHE A   3      58.017  35.145   1.017  0.00  0.00    -0.298 N 
ATOM     54  H   PHE A   3      58.390  34.354   0.454  0.00  0.00    +0.150 HD
BRANCH  53  55
ATOM     55  CA  PHE A   3      58.907  36.190   1.471  0.00  0.00    +0.141 C 
BRANCH  55  56
ATOM     56  C   PHE A   3      58.490  37.550   0.941  0.00  0.00    +0.227 C 
ATOM     57  O   PHE A   3      58.365  38.536   1.685  0.00  0.00    -0.286 OA
ENDBRANCH  55  56
BRANCH  55  58
ATOM     58  CB  PHE A   3      60.355  35.914   1.071  0.00  0.00    +0.054 C 
BRANCH  58  59
ATOM     59  CG  PHE A   3      61.304  36.994   1.463  0.00  0.00    -0.020 A 
ATOM     60  CD2 PHE A   3      61.911  36.956   2.687  0.00  0.00    -0.004 A 
ATOM     61  CE2 PHE A   3      62.757  37.983   3.113  0.00  0.00    -0.000 A 
ATOM     62  CZ  PHE A   3      63.052  39.004   2.282  0.00  0.00    -0.000 A 
ATOM     63  CE1 PHE A   3      62.489  39.053   1.037  0.00  0.00    -0.000 A 
ATOM     64  CD1 PHE A   3      61.610  38.031   0.601  0.00  0.00    -0.004 A 
ENDBRANCH  58  59
ENDBRANCH  55  58
ENDBRANCH  53  55
ENDBRANCH  50  51
BRANCH  50  65
ATOM     65  N   CYS A   2      56.272  33.764  -0.628  0.00  0.00    -0.296 N 
ATOM     66  H   CYS A   2      56.690  32.823  -0.774  0.00  0.00    +0.150 HD
ATOM     67  C   CYS A   1      56.138  34.599  -1.649  0.00  0.00    +0.239 C 
ATOM     68  O   CYS A   1      55.626  35.709  -1.492  0.00  0.00    -0.274 OA
BRANCH  67  69
ATOM     69  CA  CYS A   1      56.578  34.089  -3.006  0.00  0.00    +0.156 C 
BRANCH  69  70
ATOM     70  CB  CYS A   1      55.539  33.103  -3.494  0.00  0.00    +0.095 C 
ATOM     71  SG  CYS A   1      55.783  32.445  -5.129  0.00  0.00    -0.080 S 
ENDBRANCH  69  70
BRANCH  69  72
ATOM     72  N   CYS A   1      57.849  33.418  -2.848  0.00  0.00    -0.237 NA
ATOM     73  H   CYS A   1      57.952  32.421  -3.126  0.00  0.00    +0.142 HD
ENDBRANCH  69  72
ENDBRANCH  67  69
ENDBRANCH  50  65
ENDBRANCH  49  50
ENDBRANCH  48  49
ENDBRANCH  47  48
ENDBRANCH  46  47
ENDBRANCH   1  46
TORSDOF 29
REMARK  Name = ../refined-set-2016/1sv3/1sv3_pocket.pdb
REMARK  123 active torsions:
REMARK  status: ('A' for Active; 'I' for Inactive)
REMARK    1  A    between atoms: _1  and  _3
REMARK    2  A    between atoms: _3  and  _4
REMARK    3  A    between atoms: _3  and  _6
REMARK    4  A    between atoms: _6  and  _7
REMARK    5  A    between atoms: _10  and  _12
REMARK    6  A    between atoms: _12  and  _13
REMARK    7  A    between atoms: _12  and  _15
REMARK    8  A    between atoms: _15  and  _16
REMARK    9  A    between atoms: _19  and  _21
REMARK   10  A    between atoms: _21  and  _22
REMARK   11  A    between atoms: _21  and  _24
REMARK   12  A    between atoms: _24  and  _25
REMARK   13  A    between atoms: _31  and  _33
REMARK   14  A    between atoms: _33  and  _34
REMARK   15  A    between atoms: _36  and  _38
REMARK   16  A    between atoms: _38  and  _39
REMARK   17  A    between atoms: _38  and  _41
REMARK   18  A    between atoms: _41  and  _42
REMARK   19  A    between atoms: _42  and  _43
REMARK   20  A    between atoms: _43  and  _44
REMARK   21  A    between atoms: _44  and  _45
REMARK   22  A    between atoms: _49  and  _51
REMARK   23  A    between atoms: _51  and  _52
REMARK   24  A    between atoms: _51  and  _54
REMARK   25  A    between atoms: _54  and  _55
REMARK   26  A    between atoms: _58  and  _60
REMARK   27  A    between atoms: _60  and  _61
REMARK   28  A    between atoms: _60  and  _63
REMARK   29  A    between atoms: _63  and  _64
REMARK   30  A    between atoms: _67  and  _69
REMARK   31  A    between atoms: _69  and  _70
REMARK   32  A    between atoms: _73  and  _75
REMARK   33  A    between atoms: _75  and  _76
REMARK   34  A    between atoms: _75  and  _78
REMARK   35  A    between atoms: _78  and  _79
REMARK   36  A    between atoms: _83  and  _84
REMARK   37  A    between atoms: _89  and  _91
REMARK   38  A    between atoms: _91  and  _92
REMARK   39  A    between atoms: _91  and  _94
REMARK   40  A    between atoms: _94  and  _95
REMARK   41  A    between atoms: _97  and  _99
REMARK   42  A    between atoms: _99  and  _100
REMARK   43  A    between atoms: _99  and  _102
REMARK   44  A    between atoms: _102  and  _103
REMARK   45  A    between atoms: _108  and  _109
REMARK   46  A    between atoms: _111  and  _113
REMARK   47  A    between atoms: _113  and  _114
REMARK   48  A    between atoms: _113  and  _116
REMARK   49  A    between atoms: _116  and  _117
REMARK   50  A    between atoms: _119  and  _121
REMARK   51  A    between atoms: _121  and  _122
REMARK   52  A    between atoms: _121  and  _124
REMARK   53  A    between atoms: _124  and  _125
REMARK   54  A    between atoms: _127  and  _129
REMARK   55  A    between atoms: _129  and  _130
REMARK   56  A    between atoms: _129  and  _132
REMARK   57  A    between atoms: _132  and  _133
REMARK   58  A    between atoms: _138  and  _139
REMARK   59  A    between atoms: _141  and  _143
REMARK   60  A    between atoms: _143  and  _144
REMARK   61  A    between atoms: _143  and  _146
REMARK   62  A    between atoms: _146  and  _147
REMARK   63  A    between atoms: _152  and  _153
REMARK   64  A    between atoms: _155  and  _157
REMARK   65  A    between atoms: _157  and  _158
REMARK   66  A    between atoms: _157  and  _160
REMARK   67  A    between atoms: _160  and  _161
REMARK   68  A    between atoms: _161  and  _219
REMARK   69  A    between atoms: _162  and  _164
REMARK   70  A    between atoms: _164  and  _165
REMARK   71  A    between atoms: _167  and  _169
REMARK   72  A    between atoms: _169  and  _170
REMARK   73  A    between atoms: _169  and  _172
REMARK   74  A    between atoms: _172  and  _173
REMARK   75  A    between atoms: _183  and  _185
REMARK   76  A    between atoms: _185  and  _186
REMARK   77  A    between atoms: _188  and  _190
REMARK   78  A    between atoms: _190  and  _191
REMARK   79  A    between atoms: _190  and  _193
REMARK   80  A    between atoms: _193  and  _194
REMARK   81  A    between atoms: _197  and  _199
REMARK   82  A    between atoms: _199  and  _200
REMARK   83  A    between atoms: _199  and  _202
REMARK   84  A    between atoms: _202  and  _203
REMARK   85  A    between atoms: _206  and  _208
REMARK   86  A    between atoms: _208  and  _209
REMARK   87  A    between atoms: _208  and  _211
REMARK   88  A    between atoms: _213  and  _215
REMARK   89  A    between atoms: _215  and  _216
REMARK   90  A    between atoms: _215  and  _218
REMARK   91  A    between atoms: _218  and  _219
REMARK   92  A    between atoms: _220  and  _222
REMARK   93  A    between atoms: _222  and  _223
REMARK   94  A    between atoms: _222  and  _225
REMARK   95  A    between atoms: _225  and  _226
REMARK   96  A    between atoms: _232  and  _234
REMARK   97  A    between atoms: _234  and  _235
REMARK   98  A    between atoms: _234  and  _237
REMARK   99  A    between atoms: _237  and  _238
REMARK  100  A    between atoms: _243  and  _245
REMARK  101  A    between atoms: _245  and  _246
REMARK  102  A    between atoms: _245  and  _248
REMARK  103  A    between atoms: _248  and  _249
REMARK  104  A    between atoms: _252  and  _254
REMARK  105  A    between atoms: _254  and  _255
REMARK  106  A    between atoms: _254  and  _257
REMARK  107  A    between atoms: _257  and  _258
REMARK  108  A    between atoms: _263  and  _264
REMARK  109  A    between atoms: _266  and  _268
REMARK  110  A    between atoms: _268  and  _269
REMARK  111  A    between atoms: _268  and  _271
REMARK  112  A    between atoms: _271  and  _272
REMARK  113  A    between atoms: _272  and  _273
REMARK  114  A    between atoms: _273  and  _274
REMARK  115  A    between atoms: _274  and  _275
REMARK  116  A    between atoms: _279  and  _281
REMARK  117  A    between atoms: _281  and  _282
REMARK  118  A    between atoms: _285  and  _287
REMARK  119  A    between atoms: _287  and  _288
REMARK  120  A    between atoms: _291  and  _293
REMARK  121  A    between atoms: _293  and  _294
REMARK  122  A    between atoms: _293  and  _296
REMARK  123  A    between atoms: _296  and  _297
REMARK                            x       y       z     vdW  Elec       q    Type
REMARK                         _______ _______ _______ _____ _____    ______ ____
ROOT
ATOM      1  C   THR A   1      57.585  29.873  -2.330  0.00  0.00    +0.241 C 
ATOM      2  N   ASP A   2      58.611  29.486  -1.591  0.00  0.00    -0.298 N 
ATOM      3  H   ASP A   2      59.206  28.695  -1.910  0.00  0.00    +0.150 HD
ATOM      4  O   THR A   1      56.831  30.769  -1.980  0.00  0.00    -0.274 OA
ENDROOT
BRANCH   1   5
ATOM      5  CA  THR A   1      57.350  29.138  -3.604  0.00  0.00    +0.172 C 
BRANCH   5   6
ATOM      6  N   THR A   1      58.601  29.003  -4.314  0.00  0.00    -0.236 NA
ATOM      7  H   THR A   1      58.979  28.054  -4.507  0.00  0.00    +0.142 HD
ENDBRANCH   5   6
BRANCH   5   8
ATOM      8  CB  THR A   1      56.759  27.750  -3.331  0.00  0.00    +0.135 C 
ATOM      9  CG2 THR A   1      55.616  27.836  -2.364  0.00  0.00    +0.034 C 
BRANCH   8  10
ATOM     10  OG1 THR A   1      56.197  27.239  -4.542  0.00  0.00    -0.383 OA
ATOM     11  HG1 THR A   1      56.905  27.172  -5.231  0.00  0.00    +0.210 HD
ENDBRANCH   8  10
ENDBRANCH   5   8
ENDBRANCH   1   5
BRANCH   2  12
ATOM     12  CA  ASP A   2      58.917  30.159  -0.332  0.00  0.00    +0.148 C 
BRANCH  12  13
ATOM     13  C   ASP A   2      59.245  31.687  -0.590  0.00  0.00    +0.227 C 
ATOM     14  O   ASP A   2      58.886  32.592   0.181  0.00  0.00    -0.286 OA
ENDBRANCH  12  13
BRANCH  12  15
ATOM     15  CB  ASP A   2      60.095  29.449   0.371  0.00  0.00    +0.142 C 
BRANCH  15  16
ATOM     16  CG  ASP A   2      60.188  29.726   1.862  0.00  0.00    +0.367 C 
ATOM     17  OD2 ASP A   2      61.192  29.361   2.480  0.00  0.00    -0.246 OA
ATOM     18  OD1 ASP A   2      59.227  30.265   2.435  0.00  0.00    -0.246 OA
ENDBRANCH  15  16
ENDBRANCH  12  15
ENDBRANCH   2  12
TORSDOF 8
REMARK  Name = ../refined-set-2016/1sv3/1sv3_pocket.pdb
REMARK  123 active torsions:
REMARK  status: ('A' for Active; 'I' for Inactive)
REMARK    1  A    between atoms: _1  and  _3
REMARK    2  A    between atoms: _3  and  _4
REMARK    3  A    between atoms: _3  and  _6
REMARK    4  A    between atoms: _6  and  _7
REMARK    5  A    between atoms: _10  and  _12
REMARK    6  A    between atoms: _12  and  _13
REMARK    7  A    between atoms: _12  and  _15
REMARK    8  A    between atoms: _15  and  _16
REMARK    9  A    between atoms: _19  and  _21
REMARK   10  A    between atoms: _21  and  _22
REMARK   11  A    between atoms: _21  and  _24
REMARK   12  A    between atoms: _24  and  _25
REMARK   13  A    between atoms: _31  and  _33
REMARK   14  A    between atoms: _33  and  _34
REMARK   15  A    between atoms: _36  and  _38
REMARK   16  A    between atoms: _38  and  _39
REMARK   17  A    between atoms: _38  and  _41
REMARK   18  A    between atoms: _41  and  _42
REMARK   19  A    between atoms: _42  and  _43
REMARK   20  A    between atoms: _43  and  _44
REMARK   21  A    between atoms: _44  and  _45
REMARK   22  A    between atoms: _49  and  _51
REMARK   23  A    between atoms: _51  and  _52
REMARK   24  A    between atoms: _51  and  _54
REMARK   25  A    between atoms: _54  and  _55
REMARK   26  A    between atoms: _58  and  _60
REMARK   27  A    between atoms: _60  and  _61
REMARK   28  A    between atoms: _60  and  _63
REMARK   29  A    between atoms: _63  and  _64
REMARK   30  A    between atoms: _67  and  _69
REMARK   31  A    between atoms: _69  and  _70
REMARK   32  A    between atoms: _73  and  _75
REMARK   33  A    between atoms: _75  and  _76
REMARK   34  A    between atoms: _75  and  _78
REMARK   35  A    between atoms: _78  and  _79
REMARK   36  A    between atoms: _83  and  _84
REMARK   37  A    between atoms: _89  and  _91
REMARK   38  A    between atoms: _91  and  _92
REMARK   39  A    between atoms: _91  and  _94
REMARK   40  A    between atoms: _94  and  _95
REMARK   41  A    between atoms: _97  and  _99
REMARK   42  A    between atoms: _99  and  _100
REMARK   43  A    between atoms: _99  and  _102
REMARK   44  A    between atoms: _102  and  _103
REMARK   45  A    between atoms: _108  and  _109
REMARK   46  A    between atoms: _111  and  _113
REMARK   47  A    between atoms: _113  and  _114
REMARK   48  A    between atoms: _113  and  _116
REMARK   49  A    between atoms: _116  and  _117
REMARK   50  A    between atoms: _119  and  _121
REMARK   51  A    between atoms: _121  and  _122
REMARK   52  A    between atoms: _121  and  _124
REMARK   53  A    between atoms: _124  and  _125
REMARK   54  A    between atoms: _127  and  _129
REMARK   55  A    between atoms: _129  and  _130
REMARK   56  A    between atoms: _129  and  _132
REMARK   57  A    between atoms: _132  and  _133
REMARK   58  A    between atoms: _138  and  _139
REMARK   59  A    between atoms: _141  and  _143
REMARK   60  A    between atoms: _143  and  _144
REMARK   61  A    between atoms: _143  and  _146
REMARK   62  A    between atoms: _146  and  _147
REMARK   63  A    between atoms: _152  and  _153
REMARK   64  A    between atoms: _155  and  _157
REMARK   65  A    between atoms: _157  and  _158
REMARK   66  A    between atoms: _157  and  _160
REMARK   67  A    between atoms: _160  and  _161
REMARK   68  A    between atoms: _161  and  _219
REMARK   69  A    between atoms: _162  and  _164
REMARK   70  A    between atoms: _164  and  _165
REMARK   71  A    between atoms: _167  and  _169
REMARK   72  A    between atoms: _169  and  _170
REMARK   73  A    between atoms: _169  and  _172
REMARK   74  A    between atoms: _172  and  _173
REMARK   75  A    between atoms: _183  and  _185
REMARK   76  A    between atoms: _185  and  _186
REMARK   77  A    between atoms: _188  and  _190
REMARK   78  A    between atoms: _190  and  _191
REMARK   79  A    between atoms: _190  and  _193
REMARK   80  A    between atoms: _193  and  _194
REMARK   81  A    between atoms: _197  and  _199
REMARK   82  A    between atoms: _199  and  _200
REMARK   83  A    between atoms: _199  and  _202
REMARK   84  A    between atoms: _202  and  _203
REMARK   85  A    between atoms: _206  and  _208
REMARK   86  A    between atoms: _208  and  _209
REMARK   87  A    between atoms: _208  and  _211
REMARK   88  A    between atoms: _213  and  _215
REMARK   89  A    between atoms: _215  and  _216
REMARK   90  A    between atoms: _215  and  _218
REMARK   91  A    between atoms: _218  and  _219
REMARK   92  A    between atoms: _220  and  _222
REMARK   93  A    between atoms: _222  and  _223
REMARK   94  A    between atoms: _222  and  _225
REMARK   95  A    between atoms: _225  and  _226
REMARK   96  A    between atoms: _232  and  _234
REMARK   97  A    between atoms: _234  and  _235
REMARK   98  A    between atoms: _234  and  _237
REMARK   99  A    between atoms: _237  and  _238
REMARK  100  A    between atoms: _243  and  _245
REMARK  101  A    between atoms: _245  and  _246
REMARK  102  A    between atoms: _245  and  _248
REMARK  103  A    between atoms: _248  and  _249
REMARK  104  A    between atoms: _252  and  _254
REMARK  105  A    between atoms: _254  and  _255
REMARK  106  A    between atoms: _254  and  _257
REMARK  107  A    between atoms: _257  and  _258
REMARK  108  A    between atoms: _263  and  _264
REMARK  109  A    between atoms: _266  and  _268
REMARK  110  A    between atoms: _268  and  _269
REMARK  111  A    between atoms: _268  and  _271
REMARK  112  A    between atoms: _271  and  _272
REMARK  113  A    between atoms: _272  and  _273
REMARK  114  A    between atoms: _273  and  _274
REMARK  115  A    between atoms: _274  and  _275
REMARK  116  A    between atoms: _279  and  _281
REMARK  117  A    between atoms: _281  and  _282
REMARK  118  A    between atoms: _285  and  _287
REMARK  119  A    between atoms: _287  and  _288
REMARK  120  A    between atoms: _291  and  _293
REMARK  121  A    between atoms: _293  and  _294
REMARK  122  A    between atoms: _293  and  _296
REMARK  123  A    between atoms: _296  and  _297
REMARK                            x       y       z     vdW  Elec       q    Type
REMARK                         _______ _______ _______ _____ _____    ______ ____
ROOT
ATOM      1  C   HIS A   1      54.409  39.265   1.691  0.00  0.00    +0.239 C 
ATOM      2  N   ASP A   2      55.259  38.714   2.490  0.00  0.00    -0.298 N 
ATOM      3  H   ASP A   2      55.787  37.877   2.170  0.00  0.00    +0.150 HD
ATOM      4  O   HIS A   1      53.656  40.194   2.038  0.00  0.00    -0.274 OA
ENDROOT
BRANCH   1   5
ATOM      5  CA  HIS A   1      54.236  38.656   0.300  0.00  0.00    +0.151 C 
BRANCH   5   6
ATOM      6  N   HIS A   1      55.550  38.397  -0.231  0.00  0.00    -0.238 NA
ATOM      7  H   HIS A   1      55.807  37.414  -0.453  0.00  0.00    +0.142 HD
ENDBRANCH   5   6
BRANCH   5   8
ATOM      8  CB  HIS A   1      53.399  37.370   0.304  0.00  0.00    +0.074 C 
BRANCH   8   9
ATOM      9  CG  HIS A   1      51.989  37.567   0.720  0.00  0.00    +0.082 A 
ATOM     10  ND1 HIS A   1      51.513  37.101   1.917  0.00  0.00    -0.227 NA
ATOM     11  CE1 HIS A   1      50.237  37.445   2.032  0.00  0.00    +0.199 A 
ATOM     12  NE2 HIS A   1      49.871  38.088   0.938  0.00  0.00    -0.221 NA
ATOM     13  CD2 HIS A   1      50.976  38.220   0.117  0.00  0.00    +0.115 A 
ENDBRANCH   8   9
ENDBRANCH   5   8
ENDBRANCH   1   5
BRANCH   2  14
ATOM     14  CA  ASP A   2      55.497  39.234   3.824  0.00  0.00    +0.148 C 
BRANCH  14  15
ATOM     15  C   ASP A   2      56.031  40.670   3.737  0.00  0.00    +0.227 C 
ATOM     16  O   ASP A   2      55.586  41.530   4.473  0.00  0.00    -0.286 OA
ENDBRANCH  14  15
BRANCH  14  17
ATOM     17  CB  ASP A   2      56.524  38.404   4.562  0.00  0.00    +0.142 C 
BRANCH  17  18
ATOM     18  CG  ASP A   2      56.006  37.051   5.015  0.00  0.00    +0.367 C 
ATOM     19  OD2 ASP A   2      56.833  36.208   5.454  0.00  0.00    -0.246 OA
ATOM     20  OD1 ASP A   2      54.808  36.727   4.883  0.00  0.00    -0.246 OA
ENDBRANCH  17  18
ENDBRANCH  14  17
ENDBRANCH   2  14
TORSDOF 8
REMARK  Name = ../refined-set-2016/1sv3/1sv3_pocket.pdb
REMARK  123 active torsions:
REMARK  status: ('A' for Active; 'I' for Inactive)
REMARK    1  A    between atoms: _1  and  _3
REMARK    2  A    between atoms: _3  and  _4
REMARK    3  A    between atoms: _3  and  _6
REMARK    4  A    between atoms: _6  and  _7
REMARK    5  A    between atoms: _10  and  _12
REMARK    6  A    between atoms: _12  and  _13
REMARK    7  A    between atoms: _12  and  _15
REMARK    8  A    between atoms: _15  and  _16
REMARK    9  A    between atoms: _19  and  _21
REMARK   10  A    between atoms: _21  and  _22
REMARK   11  A    between atoms: _21  and  _24
REMARK   12  A    between atoms: _24  and  _25
REMARK   13  A    between atoms: _31  and  _33
REMARK   14  A    between atoms: _33  and  _34
REMARK   15  A    between atoms: _36  and  _38
REMARK   16  A    between atoms: _38  and  _39
REMARK   17  A    between atoms: _38  and  _41
REMARK   18  A    between atoms: _41  and  _42
REMARK   19  A    between atoms: _42  and  _43
REMARK   20  A    between atoms: _43  and  _44
REMARK   21  A    between atoms: _44  and  _45
REMARK   22  A    between atoms: _49  and  _51
REMARK   23  A    between atoms: _51  and  _52
REMARK   24  A    between atoms: _51  and  _54
REMARK   25  A    between atoms: _54  and  _55
REMARK   26  A    between atoms: _58  and  _60
REMARK   27  A    between atoms: _60  and  _61
REMARK   28  A    between atoms: _60  and  _63
REMARK   29  A    between atoms: _63  and  _64
REMARK   30  A    between atoms: _67  and  _69
REMARK   31  A    between atoms: _69  and  _70
REMARK   32  A    between atoms: _73  and  _75
REMARK   33  A    between atoms: _75  and  _76
REMARK   34  A    between atoms: _75  and  _78
REMARK   35  A    between atoms: _78  and  _79
REMARK   36  A    between atoms: _83  and  _84
REMARK   37  A    between atoms: _89  and  _91
REMARK   38  A    between atoms: _91  and  _92
REMARK   39  A    between atoms: _91  and  _94
REMARK   40  A    between atoms: _94  and  _95
REMARK   41  A    between atoms: _97  and  _99
REMARK   42  A    between atoms: _99  and  _100
REMARK   43  A    between atoms: _99  and  _102
REMARK   44  A    between atoms: _102  and  _103
REMARK   45  A    between atoms: _108  and  _109
REMARK   46  A    between atoms: _111  and  _113
REMARK   47  A    between atoms: _113  and  _114
REMARK   48  A    between atoms: _113  and  _116
REMARK   49  A    between atoms: _116  and  _117
REMARK   50  A    between atoms: _119  and  _121
REMARK   51  A    between atoms: _121  and  _122
REMARK   52  A    between atoms: _121  and  _124
REMARK   53  A    between atoms: _124  and  _125
REMARK   54  A    between atoms: _127  and  _129
REMARK   55  A    between atoms: _129  and  _130
REMARK   56  A    between atoms: _129  and  _132
REMARK   57  A    between atoms: _132  and  _133
REMARK   58  A    between atoms: _138  and  _139
REMARK   59  A    between atoms: _141  and  _143
REMARK   60  A    between atoms: _143  and  _144
REMARK   61  A    between atoms: _143  and  _146
REMARK   62  A    between atoms: _146  and  _147
REMARK   63  A    between atoms: _152  and  _153
REMARK   64  A    between atoms: _155  and  _157
REMARK   65  A    between atoms: _157  and  _158
REMARK   66  A    between atoms: _157  and  _160
REMARK   67  A    between atoms: _160  and  _161
REMARK   68  A    between atoms: _161  and  _219
REMARK   69  A    between atoms: _162  and  _164
REMARK   70  A    between atoms: _164  and  _165
REMARK   71  A    between atoms: _167  and  _169
REMARK   72  A    between atoms: _169  and  _170
REMARK   73  A    between atoms: _169  and  _172
REMARK   74  A    between atoms: _172  and  _173
REMARK   75  A    between atoms: _183  and  _185
REMARK   76  A    between atoms: _185  and  _186
REMARK   77  A    between atoms: _188  and  _190
REMARK   78  A    between atoms: _190  and  _191
REMARK   79  A    between atoms: _190  and  _193
REMARK   80  A    between atoms: _193  and  _194
REMARK   81  A    between atoms: _197  and  _199
REMARK   82  A    between atoms: _199  and  _200
REMARK   83  A    between atoms: _199  and  _202
REMARK   84  A    between atoms: _202  and  _203
REMARK   85  A    between atoms: _206  and  _208
REMARK   86  A    between atoms: _208  and  _209
REMARK   87  A    between atoms: _208  and  _211
REMARK   88  A    between atoms: _213  and  _215
REMARK   89  A    between atoms: _215  and  _216
REMARK   90  A    between atoms: _215  and  _218
REMARK   91  A    between atoms: _218  and  _219
REMARK   92  A    between atoms: _220  and  _222
REMARK   93  A    between atoms: _222  and  _223
REMARK   94  A    between atoms: _222  and  _225
REMARK   95  A    between atoms: _225  and  _226
REMARK   96  A    between atoms: _232  and  _234
REMARK   97  A    between atoms: _234  and  _235
REMARK   98  A    between atoms: _234  and  _237
REMARK   99  A    between atoms: _237  and  _238
REMARK  100  A    between atoms: _243  and  _245
REMARK  101  A    between atoms: _245  and  _246
REMARK  102  A    between atoms: _245  and  _248
REMARK  103  A    between atoms: _248  and  _249
REMARK  104  A    between atoms: _252  and  _254
REMARK  105  A    between atoms: _254  and  _255
REMARK  106  A    between atoms: _254  and  _257
REMARK  107  A    between atoms: _257  and  _258
REMARK  108  A    between atoms: _263  and  _264
REMARK  109  A    between atoms: _266  and  _268
REMARK  110  A    between atoms: _268  and  _269
REMARK  111  A    between atoms: _268  and  _271
REMARK  112  A    between atoms: _271  and  _272
REMARK  113  A    between atoms: _272  and  _273
REMARK  114  A    between atoms: _273  and  _274
REMARK  115  A    between atoms: _274  and  _275
REMARK  116  A    between atoms: _279  and  _281
REMARK  117  A    between atoms: _281  and  _282
REMARK  118  A    between atoms: _285  and  _287
REMARK  119  A    between atoms: _287  and  _288
REMARK  120  A    between atoms: _291  and  _293
REMARK  121  A    between atoms: _293  and  _294
REMARK  122  A    between atoms: _293  and  _296
REMARK  123  A    between atoms: _296  and  _297
REMARK                            x       y       z     vdW  Elec       q    Type
REMARK                         _______ _______ _______ _____ _____    ______ ____
ROOT
ATOM      1  CG  TYR A   1      50.795  41.317   4.240  0.00  0.00    -0.020 A 
ATOM      2  CD2 TYR A   1      50.328  40.261   4.996  0.00  0.00    -0.001 A 
ATOM      3  CE2 TYR A   1      49.241  39.529   4.608  0.00  0.00    +0.036 A 
ATOM      4  CZ  TYR A   1      48.577  39.822   3.450  0.00  0.00    +0.134 A 
ATOM      5  CE1 TYR A   1      48.993  40.865   2.662  0.00  0.00    +0.036 A 
ATOM      6  CD1 TYR A   1      50.113  41.614   3.055  0.00  0.00    -0.001 A 
ENDROOT
BRANCH   4   7
ATOM      7  OH  TYR A   1      47.447  39.052   3.109  0.00  0.00    -0.506 OA
ATOM      8  HH  TYR A   1      47.074  39.377   2.252  0.00  0.00    +0.292 HD
ENDBRANCH   4   7
BRANCH   1   9
ATOM      9  CB  TYR A   1      51.981  42.116   4.741  0.00  0.00    +0.051 C 
BRANCH   9  10
ATOM     10  CA  TYR A   1      52.342  43.366   3.950  0.00  0.00    +0.137 C 
BRANCH  10  11
ATOM     11  N   TYR A   1      53.120  43.005   2.783  0.00  0.00    -0.239 NA
ATOM     12  H   TYR A   1      53.398  42.012   2.647  0.00  0.00    +0.142 HD
ENDBRANCH  10  11
BRANCH  10  13
ATOM     13  C   TYR A   1      53.123  44.327   4.827  0.00  0.00    +0.224 C 
ATOM     14  O   TYR A   1      52.561  45.211   5.433  0.00  0.00    -0.287 OA
ENDBRANCH  10  13
ENDBRANCH   9  10
ENDBRANCH   1   9
TORSDOF 5
REMARK  Name = ../refined-set-2016/1sv3/1sv3_pocket.pdb
REMARK  123 active torsions:
REMARK  status: ('A' for Active; 'I' for Inactive)
REMARK    1  A    between atoms: _1  and  _3
REMARK    2  A    between atoms: _3  and  _4
REMARK    3  A    between atoms: _3  and  _6
REMARK    4  A    between atoms: _6  and  _7
REMARK    5  A    between atoms: _10  and  _12
REMARK    6  A    between atoms: _12  and  _13
REMARK    7  A    between atoms: _12  and  _15
REMARK    8  A    between atoms: _15  and  _16
REMARK    9  A    between atoms: _19  and  _21
REMARK   10  A    between atoms: _21  and  _22
REMARK   11  A    between atoms: _21  and  _24
REMARK   12  A    between atoms: _24  and  _25
REMARK   13  A    between atoms: _31  and  _33
REMARK   14  A    between atoms: _33  and  _34
REMARK   15  A    between atoms: _36  and  _38
REMARK   16  A    between atoms: _38  and  _39
REMARK   17  A    between atoms: _38  and  _41
REMARK   18  A    between atoms: _41  and  _42
REMARK   19  A    between atoms: _42  and  _43
REMARK   20  A    between atoms: _43  and  _44
REMARK   21  A    between atoms: _44  and  _45
REMARK   22  A    between atoms: _49  and  _51
REMARK   23  A    between atoms: _51  and  _52
REMARK   24  A    between atoms: _51  and  _54
REMARK   25  A    between atoms: _54  and  _55
REMARK   26  A    between atoms: _58  and  _60
REMARK   27  A    between atoms: _60  and  _61
REMARK   28  A    between atoms: _60  and  _63
REMARK   29  A    between atoms: _63  and  _64
REMARK   30  A    between atoms: _67  and  _69
REMARK   31  A    between atoms: _69  and  _70
REMARK   32  A    between atoms: _73  and  _75
REMARK   33  A    between atoms: _75  and  _76
REMARK   34  A    between atoms: _75  and  _78
REMARK   35  A    between atoms: _78  and  _79
REMARK   36  A    between atoms: _83  and  _84
REMARK   37  A    between atoms: _89  and  _91
REMARK   38  A    between atoms: _91  and  _92
REMARK   39  A    between atoms: _91  and  _94
REMARK   40  A    between atoms: _94  and  _95
REMARK   41  A    between atoms: _97  and  _99
REMARK   42  A    between atoms: _99  and  _100
REMARK   43  A    between atoms: _99  and  _102
REMARK   44  A    between atoms: _102  and  _103
REMARK   45  A    between atoms: _108  and  _109
REMARK   46  A    between atoms: _111  and  _113
REMARK   47  A    between atoms: _113  and  _114
REMARK   48  A    between atoms: _113  and  _116
REMARK   49  A    between atoms: _116  and  _117
REMARK   50  A    between atoms: _119  and  _121
REMARK   51  A    between atoms: _121  and  _122
REMARK   52  A    between atoms: _121  and  _124
REMARK   53  A    between atoms: _124  and  _125
REMARK   54  A    between atoms: _127  and  _129
REMARK   55  A    between atoms: _129  and  _130
REMARK   56  A    between atoms: _129  and  _132
REMARK   57  A    between atoms: _132  and  _133
REMARK   58  A    between atoms: _138  and  _139
REMARK   59  A    between atoms: _141  and  _143
REMARK   60  A    between atoms: _143  and  _144
REMARK   61  A    between atoms: _143  and  _146
REMARK   62  A    between atoms: _146  and  _147
REMARK   63  A    between atoms: _152  and  _153
REMARK   64  A    between atoms: _155  and  _157
REMARK   65  A    between atoms: _157  and  _158
REMARK   66  A    between atoms: _157  and  _160
REMARK   67  A    between atoms: _160  and  _161
REMARK   68  A    between atoms: _161  and  _219
REMARK   69  A    between atoms: _162  and  _164
REMARK   70  A    between atoms: _164  and  _165
REMARK   71  A    between atoms: _167  and  _169
REMARK   72  A    between atoms: _169  and  _170
REMARK   73  A    between atoms: _169  and  _172
REMARK   74  A    between atoms: _172  and  _173
REMARK   75  A    between atoms: _183  and  _185
REMARK   76  A    between atoms: _185  and  _186
REMARK   77  A    between atoms: _188  and  _190
REMARK   78  A    between atoms: _190  and  _191
REMARK   79  A    between atoms: _190  and  _193
REMARK   80  A    between atoms: _193  and  _194
REMARK   81  A    between atoms: _197  and  _199
REMARK   82  A    between atoms: _199  and  _200
REMARK   83  A    between atoms: _199  and  _202
REMARK   84  A    between atoms: _202  and  _203
REMARK   85  A    between atoms: _206  and  _208
REMARK   86  A    between atoms: _208  and  _209
REMARK   87  A    between atoms: _208  and  _211
REMARK   88  A    between atoms: _213  and  _215
REMARK   89  A    between atoms: _215  and  _216
REMARK   90  A    between atoms: _215  and  _218
REMARK   91  A    between atoms: _218  and  _219
REMARK   92  A    between atoms: _220  and  _222
REMARK   93  A    between atoms: _222  and  _223
REMARK   94  A    between atoms: _222  and  _225
REMARK   95  A    between atoms: _225  and  _226
REMARK   96  A    between atoms: _232  and  _234
REMARK   97  A    between atoms: _234  and  _235
REMARK   98  A    between atoms: _234  and  _237
REMARK   99  A    between atoms: _237  and  _238
REMARK  100  A    between atoms: _243  and  _245
REMARK  101  A    between atoms: _245  and  _246
REMARK  102  A    between atoms: _245  and  _248
REMARK  103  A    between atoms: _248  and  _249
REMARK  104  A    between atoms: _252  and  _254
REMARK  105  A    between atoms: _254  and  _255
REMARK  106  A    between atoms: _254  and  _257
REMARK  107  A    between atoms: _257  and  _258
REMARK  108  A    between atoms: _263  and  _264
REMARK  109  A    between atoms: _266  and  _268
REMARK  110  A    between atoms: _268  and  _269
REMARK  111  A    between atoms: _268  and  _271
REMARK  112  A    between atoms: _271  and  _272
REMARK  113  A    between atoms: _272  and  _273
REMARK  114  A    between atoms: _273  and  _274
REMARK  115  A    between atoms: _274  and  _275
REMARK  116  A    between atoms: _279  and  _281
REMARK  117  A    between atoms: _281  and  _282
REMARK  118  A    between atoms: _285  and  _287
REMARK  119  A    between atoms: _287  and  _288
REMARK  120  A    between atoms: _291  and  _293
REMARK  121  A    between atoms: _293  and  _294
REMARK  122  A    between atoms: _293  and  _296
REMARK  123  A    between atoms: _296  and  _297
REMARK                            x       y       z     vdW  Elec       q    Type
REMARK                         _______ _______ _______ _____ _____    ______ ____
ROOT
ATOM      1  CG  LYS A   1      46.647  38.567   9.670  0.00  0.00    -0.000 C 
ENDROOT
BRANCH   1   2
ATOM      2  CB  LYS A   1      45.210  39.020   9.710  0.00  0.00    +0.025 C 
BRANCH   2   3
ATOM      3  CA  LYS A   1      44.719  39.370   8.298  0.00  0.00    +0.133 C 
BRANCH   3   4
ATOM      4  N   LYS A   1      45.332  40.610   7.846  0.00  0.00    -0.239 NA
ATOM      5  H   LYS A   1      45.892  41.187   8.506  0.00  0.00    +0.142 HD
ENDBRANCH   3   4
BRANCH   3   6
ATOM      6  C   LYS A   1      43.220  39.441   8.314  0.00  0.00    +0.224 C 
ATOM      7  O   LYS A   1      42.549  38.465   7.980  0.00  0.00    -0.287 OA
ENDBRANCH   3   6
ENDBRANCH   2   3
ENDBRANCH   1   2
BRANCH   1   8
ATOM      8  CD  LYS A   1      47.129  38.210  11.046  0.00  0.00    -0.024 C 
BRANCH   8   9
ATOM      9  CE  LYS A   1      48.574  37.769  11.027  0.00  0.00    -0.086 C 
BRANCH   9  10
ATOM     10  NZ  LYS A   1      48.964  37.425  12.443  0.00  0.00    +0.380 N 
ATOM     11  HZ1 LYS A   1      48.848  38.264  13.047  0.00  0.00    -0.089 HD
ATOM     12  HZ2 LYS A   1      48.355  36.658  12.792  0.00  0.00    -0.089 HD
ATOM     13  HZ3 LYS A   1      49.957  37.117  12.463  0.00  0.00    -0.089 HD
ENDBRANCH   9  10
ENDBRANCH   8   9
ENDBRANCH   1   8
TORSDOF 7
REMARK  Name = ../refined-set-2016/1sv3/1sv3_pocket.pdb
REMARK  123 active torsions:
REMARK  status: ('A' for Active; 'I' for Inactive)
REMARK    1  A    between atoms: _1  and  _3
REMARK    2  A    between atoms: _3  and  _4
REMARK    3  A    between atoms: _3  and  _6
REMARK    4  A    between atoms: _6  and  _7
REMARK    5  A    between atoms: _10  and  _12
REMARK    6  A    between atoms: _12  and  _13
REMARK    7  A    between atoms: _12  and  _15
REMARK    8  A    between atoms: _15  and  _16
REMARK    9  A    between atoms: _19  and  _21
REMARK   10  A    between atoms: _21  and  _22
REMARK   11  A    between atoms: _21  and  _24
REMARK   12  A    between atoms: _24  and  _25
REMARK   13  A    between atoms: _31  and  _33
REMARK   14  A    between atoms: _33  and  _34
REMARK   15  A    between atoms: _36  and  _38
REMARK   16  A    between atoms: _38  and  _39
REMARK   17  A    between atoms: _38  and  _41
REMARK   18  A    between atoms: _41  and  _42
REMARK   19  A    between atoms: _42  and  _43
REMARK   20  A    between atoms: _43  and  _44
REMARK   21  A    between atoms: _44  and  _45
REMARK   22  A    between atoms: _49  and  _51
REMARK   23  A    between atoms: _51  and  _52
REMARK   24  A    between atoms: _51  and  _54
REMARK   25  A    between atoms: _54  and  _55
REMARK   26  A    between atoms: _58  and  _60
REMARK   27  A    between atoms: _60  and  _61
REMARK   28  A    between atoms: _60  and  _63
REMARK   29  A    between atoms: _63  and  _64
REMARK   30  A    between atoms: _67  and  _69
REMARK   31  A    between atoms: _69  and  _70
REMARK   32  A    between atoms: _73  and  _75
REMARK   33  A    between atoms: _75  and  _76
REMARK   34  A    between atoms: _75  and  _78
REMARK   35  A    between atoms: _78  and  _79
REMARK   36  A    between atoms: _83  and  _84
REMARK   37  A    between atoms: _89  and  _91
REMARK   38  A    between atoms: _91  and  _92
REMARK   39  A    between atoms: _91  and  _94
REMARK   40  A    between atoms: _94  and  _95
REMARK   41  A    between atoms: _97  and  _99
REMARK   42  A    between atoms: _99  and  _100
REMARK   43  A    between atoms: _99  and  _102
REMARK   44  A    between atoms: _102  and  _103
REMARK   45  A    between atoms: _108  and  _109
REMARK   46  A    between atoms: _111  and  _113
REMARK   47  A    between atoms: _113  and  _114
REMARK   48  A    between atoms: _113  and  _116
REMARK   49  A    between atoms: _116  and  _117
REMARK   50  A    between atoms: _119  and  _121
REMARK   51  A    between atoms: _121  and  _122
REMARK   52  A    between atoms: _121  and  _124
REMARK   53  A    between atoms: _124  and  _125
REMARK   54  A    between atoms: _127  and  _129
REMARK   55  A    between atoms: _129  and  _130
REMARK   56  A    between atoms: _129  and  _132
REMARK   57  A    between atoms: _132  and  _133
REMARK   58  A    between atoms: _138  and  _139
REMARK   59  A    between atoms: _141  and  _143
REMARK   60  A    between atoms: _143  and  _144
REMARK   61  A    between atoms: _143  and  _146
REMARK   62  A    between atoms: _146  and  _147
REMARK   63  A    between atoms: _152  and  _153
REMARK   64  A    between atoms: _155  and  _157
REMARK   65  A    between atoms: _157  and  _158
REMARK   66  A    between atoms: _157  and  _160
REMARK   67  A    between atoms: _160  and  _161
REMARK   68  A    between atoms: _161  and  _219
REMARK   69  A    between atoms: _162  and  _164
REMARK   70  A    between atoms: _164  and  _165
REMARK   71  A    between atoms: _167  and  _169
REMARK   72  A    between atoms: _169  and  _170
REMARK   73  A    between atoms: _169  and  _172
REMARK   74  A    between atoms: _172  and  _173
REMARK   75  A    between atoms: _183  and  _185
REMARK   76  A    between atoms: _185  and  _186
REMARK   77  A    between atoms: _188  and  _190
REMARK   78  A    between atoms: _190  and  _191
REMARK   79  A    between atoms: _190  and  _193
REMARK   80  A    between atoms: _193  and  _194
REMARK   81  A    between atoms: _197  and  _199
REMARK   82  A    between atoms: _199  and  _200
REMARK   83  A    between atoms: _199  and  _202
REMARK   84  A    between atoms: _202  and  _203
REMARK   85  A    between atoms: _206  and  _208
REMARK   86  A    between atoms: _208  and  _209
REMARK   87  A    between atoms: _208  and  _211
REMARK   88  A    between atoms: _213  and  _215
REMARK   89  A    between atoms: _215  and  _216
REMARK   90  A    between atoms: _215  and  _218
REMARK   91  A    between atoms: _218  and  _219
REMARK   92  A    between atoms: _220  and  _222
REMARK   93  A    between atoms: _222  and  _223
REMARK   94  A    between atoms: _222  and  _225
REMARK   95  A    between atoms: _225  and  _226
REMARK   96  A    between atoms: _232  and  _234
REMARK   97  A    between atoms: _234  and  _235
REMARK   98  A    between atoms: _234  and  _237
REMARK   99  A    between atoms: _237  and  _238
REMARK  100  A    between atoms: _243  and  _245
REMARK  101  A    between atoms: _245  and  _246
REMARK  102  A    between atoms: _245  and  _248
REMARK  103  A    between atoms: _248  and  _249
REMARK  104  A    between atoms: _252  and  _254
REMARK  105  A    between atoms: _254  and  _255
REMARK  106  A    between atoms: _254  and  _257
REMARK  107  A    between atoms: _257  and  _258
REMARK  108  A    between atoms: _263  and  _264
REMARK  109  A    between atoms: _266  and  _268
REMARK  110  A    between atoms: _268  and  _269
REMARK  111  A    between atoms: _268  and  _271
REMARK  112  A    between atoms: _271  and  _272
REMARK  113  A    between atoms: _272  and  _273
REMARK  114  A    between atoms: _273  and  _274
REMARK  115  A    between atoms: _274  and  _275
REMARK  116  A    between atoms: _279  and  _281
REMARK  117  A    between atoms: _281  and  _282
REMARK  118  A    between atoms: _285  and  _287
REMARK  119  A    between atoms: _287  and  _288
REMARK  120  A    between atoms: _291  and  _293
REMARK  121  A    between atoms: _293  and  _294
REMARK  122  A    between atoms: _293  and  _296
REMARK  123  A    between atoms: _296  and  _297
REMARK                            x       y       z     vdW  Elec       q    Type
REMARK                         _______ _______ _______ _____ _____    ______ ____
ROOT
ATOM      1  C   ALA A   1      50.640  34.762  -4.784  0.00  0.00    +0.238 C 
ATOM      2  O   ALA A   1      51.291  33.765  -5.009  0.00  0.00    -0.274 OA
ATOM      3  N   ALA A   2      49.347  34.877  -5.011  0.00  0.00    -0.298 N 
ATOM      4  H   ALA A   2      48.862  35.759  -4.748  0.00  0.00    +0.150 HD
ENDROOT
BRANCH   1   5
ATOM      5  CA  ALA A   1      51.324  35.971  -4.176  0.00  0.00    +0.145 C 
ATOM      6  CB  ALA A   1      51.074  36.006  -2.687  0.00  0.00    +0.028 C 
BRANCH   5   7
ATOM      7  N   ALA A   1      50.916  37.218  -4.785  0.00  0.00    -0.238 NA
ATOM      8  H   ALA A   1      50.397  37.917  -4.216  0.00  0.00    +0.142 HD
ENDBRANCH   5   7
ENDBRANCH   1   5
BRANCH   3   9
ATOM      9  CA  ALA A   2      48.589  33.813  -5.614  0.00  0.00    +0.137 C 
ATOM     10  CB  ALA A   2      47.149  34.203  -5.690  0.00  0.00    +0.030 C 
BRANCH   9  11
ATOM     11  C   ALA A   2      49.100  33.493  -6.999  0.00  0.00    +0.227 C 
ATOM     12  O   ALA A   2      49.266  32.321  -7.335  0.00  0.00    -0.286 OA
ENDBRANCH   9  11
ENDBRANCH   3   9
TORSDOF 4
REMARK  Name = ../refined-set-2016/1sv3/1sv3_pocket.pdb
REMARK  123 active torsions:
REMARK  status: ('A' for Active; 'I' for Inactive)
REMARK    1  A    between atoms: _1  and  _3
REMARK    2  A    between atoms: _3  and  _4
REMARK    3  A    between atoms: _3  and  _6
REMARK    4  A    between atoms: _6  and  _7
REMARK    5  A    between atoms: _10  and  _12
REMARK    6  A    between atoms: _12  and  _13
REMARK    7  A    between atoms: _12  and  _15
REMARK    8  A    between atoms: _15  and  _16
REMARK    9  A    between atoms: _19  and  _21
REMARK   10  A    between atoms: _21  and  _22
REMARK   11  A    between atoms: _21  and  _24
REMARK   12  A    between atoms: _24  and  _25
REMARK   13  A    between atoms: _31  and  _33
REMARK   14  A    between atoms: _33  and  _34
REMARK   15  A    between atoms: _36  and  _38
REMARK   16  A    between atoms: _38  and  _39
REMARK   17  A    between atoms: _38  and  _41
REMARK   18  A    between atoms: _41  and  _42
REMARK   19  A    between atoms: _42  and  _43
REMARK   20  A    between atoms: _43  and  _44
REMARK   21  A    between atoms: _44  and  _45
REMARK   22  A    between atoms: _49  and  _51
REMARK   23  A    between atoms: _51  and  _52
REMARK   24  A    between atoms: _51  and  _54
REMARK   25  A    between atoms: _54  and  _55
REMARK   26  A    between atoms: _58  and  _60
REMARK   27  A    between atoms: _60  and  _61
REMARK   28  A    between atoms: _60  and  _63
REMARK   29  A    between atoms: _63  and  _64
REMARK   30  A    between atoms: _67  and  _69
REMARK   31  A    between atoms: _69  and  _70
REMARK   32  A    between atoms: _73  and  _75
REMARK   33  A    between atoms: _75  and  _76
REMARK   34  A    between atoms: _75  and  _78
REMARK   35  A    between atoms: _78  and  _79
REMARK   36  A    between atoms: _83  and  _84
REMARK   37  A    between atoms: _89  and  _91
REMARK   38  A    between atoms: _91  and  _92
REMARK   39  A    between atoms: _91  and  _94
REMARK   40  A    between atoms: _94  and  _95
REMARK   41  A    between atoms: _97  and  _99
REMARK   42  A    between atoms: _99  and  _100
REMARK   43  A    between atoms: _99  and  _102
REMARK   44  A    between atoms: _102  and  _103
REMARK   45  A    between atoms: _108  and  _109
REMARK   46  A    between atoms: _111  and  _113
REMARK   47  A    between atoms: _113  and  _114
REMARK   48  A    between atoms: _113  and  _116
REMARK   49  A    between atoms: _116  and  _117
REMARK   50  A    between atoms: _119  and  _121
REMARK   51  A    between atoms: _121  and  _122
REMARK   52  A    between atoms: _121  and  _124
REMARK   53  A    between atoms: _124  and  _125
REMARK   54  A    between atoms: _127  and  _129
REMARK   55  A    between atoms: _129  and  _130
REMARK   56  A    between atoms: _129  and  _132
REMARK   57  A    between atoms: _132  and  _133
REMARK   58  A    between atoms: _138  and  _139
REMARK   59  A    between atoms: _141  and  _143
REMARK   60  A    between atoms: _143  and  _144
REMARK   61  A    between atoms: _143  and  _146
REMARK   62  A    between atoms: _146  and  _147
REMARK   63  A    between atoms: _152  and  _153
REMARK   64  A    between atoms: _155  and  _157
REMARK   65  A    between atoms: _157  and  _158
REMARK   66  A    between atoms: _157  and  _160
REMARK   67  A    between atoms: _160  and  _161
REMARK   68  A    between atoms: _161  and  _219
REMARK   69  A    between atoms: _162  and  _164
REMARK   70  A    between atoms: _164  and  _165
REMARK   71  A    between atoms: _167  and  _169
REMARK   72  A    between atoms: _169  and  _170
REMARK   73  A    between atoms: _169  and  _172
REMARK   74  A    between atoms: _172  and  _173
REMARK   75  A    between atoms: _183  and  _185
REMARK   76  A    between atoms: _185  and  _186
REMARK   77  A    between atoms: _188  and  _190
REMARK   78  A    between atoms: _190  and  _191
REMARK   79  A    between atoms: _190  and  _193
REMARK   80  A    between atoms: _193  and  _194
REMARK   81  A    between atoms: _197  and  _199
REMARK   82  A    between atoms: _199  and  _200
REMARK   83  A    between atoms: _199  and  _202
REMARK   84  A    between atoms: _202  and  _203
REMARK   85  A    between atoms: _206  and  _208
REMARK   86  A    between atoms: _208  and  _209
REMARK   87  A    between atoms: _208  and  _211
REMARK   88  A    between atoms: _213  and  _215
REMARK   89  A    between atoms: _215  and  _216
REMARK   90  A    between atoms: _215  and  _218
REMARK   91  A    between atoms: _218  and  _219
REMARK   92  A    between atoms: _220  and  _222
REMARK   93  A    between atoms: _222  and  _223
REMARK   94  A    between atoms: _222  and  _225
REMARK   95  A    between atoms: _225  and  _226
REMARK   96  A    between atoms: _232  and  _234
REMARK   97  A    between atoms: _234  and  _235
REMARK   98  A    between atoms: _234  and  _237
REMARK   99  A    between atoms: _237  and  _238
REMARK  100  A    between atoms: _243  and  _245
REMARK  101  A    between atoms: _245  and  _246
REMARK  102  A    between atoms: _245  and  _248
REMARK  103  A    between atoms: _248  and  _249
REMARK  104  A    between atoms: _252  and  _254
REMARK  105  A    between atoms: _254  and  _255
REMARK  106  A    between atoms: _254  and  _257
REMARK  107  A    between atoms: _257  and  _258
REMARK  108  A    between atoms: _263  and  _264
REMARK  109  A    between atoms: _266  and  _268
REMARK  110  A    between atoms: _268  and  _269
REMARK  111  A    between atoms: _268  and  _271
REMARK  112  A    between atoms: _271  and  _272
REMARK  113  A    between atoms: _272  and  _273
REMARK  114  A    between atoms: _273  and  _274
REMARK  115  A    between atoms: _274  and  _275
REMARK  116  A    between atoms: _279  and  _281
REMARK  117  A    between atoms: _281  and  _282
REMARK  118  A    between atoms: _285  and  _287
REMARK  119  A    between atoms: _287  and  _288
REMARK  120  A    between atoms: _291  and  _293
REMARK  121  A    between atoms: _293  and  _294
REMARK  122  A    between atoms: _293  and  _296
REMARK  123  A    between atoms: _296  and  _297
REMARK                            x       y       z     vdW  Elec       q    Type
REMARK                         _______ _______ _______ _____ _____    ______ ____
ROOT
ATOM      1  CB  PHE A   1      51.169  30.138  -5.240  0.00  0.00    +0.051 C 
ENDROOT
BRANCH   1   2
ATOM      2  CG  PHE A   1      51.471  30.675  -3.863  0.00  0.00    -0.020 A 
ATOM      3  CD2 PHE A   1      50.446  31.169  -3.087  0.00  0.00    -0.004 A 
ATOM      4  CE2 PHE A   1      50.662  31.616  -1.791  0.00  0.00    -0.000 A 
ATOM      5  CZ  PHE A   1      51.872  31.587  -1.261  0.00  0.00    -0.000 A 
ATOM      6  CE1 PHE A   1      52.940  31.103  -2.024  0.00  0.00    -0.000 A 
ATOM      7  CD1 PHE A   1      52.698  30.621  -3.300  0.00  0.00    -0.004 A 
ENDBRANCH   1   2
BRANCH   1   8
ATOM      8  CA  PHE A   1      52.273  30.363  -6.270  0.00  0.00    +0.137 C 
BRANCH   8   9
ATOM      9  N   PHE A   1      52.428  31.768  -6.620  0.00  0.00    -0.239 NA
ATOM     10  H   PHE A   1      51.795  32.478  -6.200  0.00  0.00    +0.142 HD
ENDBRANCH   8   9
BRANCH   8  11
ATOM     11  C   PHE A   1      51.942  29.548  -7.504  0.00  0.00    +0.224 C 
ATOM     12  O   PHE A   1      52.490  28.460  -7.717  0.00  0.00    -0.287 OA
ENDBRANCH   8  11
ENDBRANCH   1   8
TORSDOF 4
REMARK  Name = ../refined-set-2016/1sv3/1sv3_pocket.pdb
REMARK  123 active torsions:
REMARK  status: ('A' for Active; 'I' for Inactive)
REMARK    1  A    between atoms: _1  and  _3
REMARK    2  A    between atoms: _3  and  _4
REMARK    3  A    between atoms: _3  and  _6
REMARK    4  A    between atoms: _6  and  _7
REMARK    5  A    between atoms: _10  and  _12
REMARK    6  A    between atoms: _12  and  _13
REMARK    7  A    between atoms: _12  and  _15
REMARK    8  A    between atoms: _15  and  _16
REMARK    9  A    between atoms: _19  and  _21
REMARK   10  A    between atoms: _21  and  _22
REMARK   11  A    between atoms: _21  and  _24
REMARK   12  A    between atoms: _24  and  _25
REMARK   13  A    between atoms: _31  and  _33
REMARK   14  A    between atoms: _33  and  _34
REMARK   15  A    between atoms: _36  and  _38
REMARK   16  A    between atoms: _38  and  _39
REMARK   17  A    between atoms: _38  and  _41
REMARK   18  A    between atoms: _41  and  _42
REMARK   19  A    between atoms: _42  and  _43
REMARK   20  A    between atoms: _43  and  _44
REMARK   21  A    between atoms: _44  and  _45
REMARK   22  A    between atoms: _49  and  _51
REMARK   23  A    between atoms: _51  and  _52
REMARK   24  A    between atoms: _51  and  _54
REMARK   25  A    between atoms: _54  and  _55
REMARK   26  A    between atoms: _58  and  _60
REMARK   27  A    between atoms: _60  and  _61
REMARK   28  A    between atoms: _60  and  _63
REMARK   29  A    between atoms: _63  and  _64
REMARK   30  A    between atoms: _67  and  _69
REMARK   31  A    between atoms: _69  and  _70
REMARK   32  A    between atoms: _73  and  _75
REMARK   33  A    between atoms: _75  and  _76
REMARK   34  A    between atoms: _75  and  _78
REMARK   35  A    between atoms: _78  and  _79
REMARK   36  A    between atoms: _83  and  _84
REMARK   37  A    between atoms: _89  and  _91
REMARK   38  A    between atoms: _91  and  _92
REMARK   39  A    between atoms: _91  and  _94
REMARK   40  A    between atoms: _94  and  _95
REMARK   41  A    between atoms: _97  and  _99
REMARK   42  A    between atoms: _99  and  _100
REMARK   43  A    between atoms: _99  and  _102
REMARK   44  A    between atoms: _102  and  _103
REMARK   45  A    between atoms: _108  and  _109
REMARK   46  A    between atoms: _111  and  _113
REMARK   47  A    between atoms: _113  and  _114
REMARK   48  A    between atoms: _113  and  _116
REMARK   49  A    between atoms: _116  and  _117
REMARK   50  A    between atoms: _119  and  _121
REMARK   51  A    between atoms: _121  and  _122
REMARK   52  A    between atoms: _121  and  _124
REMARK   53  A    between atoms: _124  and  _125
REMARK   54  A    between atoms: _127  and  _129
REMARK   55  A    between atoms: _129  and  _130
REMARK   56  A    between atoms: _129  and  _132
REMARK   57  A    between atoms: _132  and  _133
REMARK   58  A    between atoms: _138  and  _139
REMARK   59  A    between atoms: _141  and  _143
REMARK   60  A    between atoms: _143  and  _144
REMARK   61  A    between atoms: _143  and  _146
REMARK   62  A    between atoms: _146  and  _147
REMARK   63  A    between atoms: _152  and  _153
REMARK   64  A    between atoms: _155  and  _157
REMARK   65  A    between atoms: _157  and  _158
REMARK   66  A    between atoms: _157  and  _160
REMARK   67  A    between atoms: _160  and  _161
REMARK   68  A    between atoms: _161  and  _219
REMARK   69  A    between atoms: _162  and  _164
REMARK   70  A    between atoms: _164  and  _165
REMARK   71  A    between atoms: _167  and  _169
REMARK   72  A    between atoms: _169  and  _170
REMARK   73  A    between atoms: _169  and  _172
REMARK   74  A    between atoms: _172  and  _173
REMARK   75  A    between atoms: _183  and  _185
REMARK   76  A    between atoms: _185  and  _186
REMARK   77  A    between atoms: _188  and  _190
REMARK   78  A    between atoms: _190  and  _191
REMARK   79  A    between atoms: _190  and  _193
REMARK   80  A    between atoms: _193  and  _194
REMARK   81  A    between atoms: _197  and  _199
REMARK   82  A    between atoms: _199  and  _200
REMARK   83  A    between atoms: _199  and  _202
REMARK   84  A    between atoms: _202  and  _203
REMARK   85  A    between atoms: _206  and  _208
REMARK   86  A    between atoms: _208  and  _209
REMARK   87  A    between atoms: _208  and  _211
REMARK   88  A    between atoms: _213  and  _215
REMARK   89  A    between atoms: _215  and  _216
REMARK   90  A    between atoms: _215  and  _218
REMARK   91  A    between atoms: _218  and  _219
REMARK   92  A    between atoms: _220  and  _222
REMARK   93  A    between atoms: _222  and  _223
REMARK   94  A    between atoms: _222  and  _225
REMARK   95  A    between atoms: _225  and  _226
REMARK   96  A    between atoms: _232  and  _234
REMARK   97  A    between atoms: _234  and  _235
REMARK   98  A    between atoms: _234  and  _237
REMARK   99  A    between atoms: _237  and  _238
REMARK  100  A    between atoms: _243  and  _245
REMARK  101  A    between atoms: _245  and  _246
REMARK  102  A    between atoms: _245  and  _248
REMARK  103  A    between atoms: _248  and  _249
REMARK  104  A    between atoms: _252  and  _254
REMARK  105  A    between atoms: _254  and  _255
REMARK  106  A    between atoms: _254  and  _257
REMARK  107  A    between atoms: _257  and  _258
REMARK  108  A    between atoms: _263  and  _264
REMARK  109  A    between atoms: _266  and  _268
REMARK  110  A    between atoms: _268  and  _269
REMARK  111  A    between atoms: _268  and  _271
REMARK  112  A    between atoms: _271  and  _272
REMARK  113  A    between atoms: _272  and  _273
REMARK  114  A    between atoms: _273  and  _274
REMARK  115  A    between atoms: _274  and  _275
REMARK  116  A    between atoms: _279  and  _281
REMARK  117  A    between atoms: _281  and  _282
REMARK  118  A    between atoms: _285  and  _287
REMARK  119  A    between atoms: _287  and  _288
REMARK  120  A    between atoms: _291  and  _293
REMARK  121  A    between atoms: _293  and  _294
REMARK  122  A    between atoms: _293  and  _296
REMARK  123  A    between atoms: _296  and  _297
REMARK                            x       y       z     vdW  Elec       q    Type
REMARK                         _______ _______ _______ _____ _____    ______ ____
ROOT
ATOM      1  O   HOH     1      56.615  28.489   7.309  0.00  0.00    +0.000 OA
ENDROOT
TORSDOF 0
REMARK  Name = ../refined-set-2016/1sv3/1sv3_pocket.pdb
REMARK  123 active torsions:
REMARK  status: ('A' for Active; 'I' for Inactive)
REMARK    1  A    between atoms: _1  and  _3
REMARK    2  A    between atoms: _3  and  _4
REMARK    3  A    between atoms: _3  and  _6
REMARK    4  A    between atoms: _6  and  _7
REMARK    5  A    between atoms: _10  and  _12
REMARK    6  A    between atoms: _12  and  _13
REMARK    7  A    between atoms: _12  and  _15
REMARK    8  A    between atoms: _15  and  _16
REMARK    9  A    between atoms: _19  and  _21
REMARK   10  A    between atoms: _21  and  _22
REMARK   11  A    between atoms: _21  and  _24
REMARK   12  A    between atoms: _24  and  _25
REMARK   13  A    between atoms: _31  and  _33
REMARK   14  A    between atoms: _33  and  _34
REMARK   15  A    between atoms: _36  and  _38
REMARK   16  A    between atoms: _38  and  _39
REMARK   17  A    between atoms: _38  and  _41
REMARK   18  A    between atoms: _41  and  _42
REMARK   19  A    between atoms: _42  and  _43
REMARK   20  A    between atoms: _43  and  _44
REMARK   21  A    between atoms: _44  and  _45
REMARK   22  A    between atoms: _49  and  _51
REMARK   23  A    between atoms: _51  and  _52
REMARK   24  A    between atoms: _51  and  _54
REMARK   25  A    between atoms: _54  and  _55
REMARK   26  A    between atoms: _58  and  _60
REMARK   27  A    between atoms: _60  and  _61
REMARK   28  A    between atoms: _60  and  _63
REMARK   29  A    between atoms: _63  and  _64
REMARK   30  A    between atoms: _67  and  _69
REMARK   31  A    between atoms: _69  and  _70
REMARK   32  A    between atoms: _73  and  _75
REMARK   33  A    between atoms: _75  and  _76
REMARK   34  A    between atoms: _75  and  _78
REMARK   35  A    between atoms: _78  and  _79
REMARK   36  A    between atoms: _83  and  _84
REMARK   37  A    between atoms: _89  and  _91
REMARK   38  A    between atoms: _91  and  _92
REMARK   39  A    between atoms: _91  and  _94
REMARK   40  A    between atoms: _94  and  _95
REMARK   41  A    between atoms: _97  and  _99
REMARK   42  A    between atoms: _99  and  _100
REMARK   43  A    between atoms: _99  and  _102
REMARK   44  A    between atoms: _102  and  _103
REMARK   45  A    between atoms: _108  and  _109
REMARK   46  A    between atoms: _111  and  _113
REMARK   47  A    between atoms: _113  and  _114
REMARK   48  A    between atoms: _113  and  _116
REMARK   49  A    between atoms: _116  and  _117
REMARK   50  A    between atoms: _119  and  _121
REMARK   51  A    between atoms: _121  and  _122
REMARK   52  A    between atoms: _121  and  _124
REMARK   53  A    between atoms: _124  and  _125
REMARK   54  A    between atoms: _127  and  _129
REMARK   55  A    between atoms: _129  and  _130
REMARK   56  A    between atoms: _129  and  _132
REMARK   57  A    between atoms: _132  and  _133
REMARK   58  A    between atoms: _138  and  _139
REMARK   59  A    between atoms: _141  and  _143
REMARK   60  A    between atoms: _143  and  _144
REMARK   61  A    between atoms: _143  and  _146
REMARK   62  A    between atoms: _146  and  _147
REMARK   63  A    between atoms: _152  and  _153
REMARK   64  A    between atoms: _155  and  _157
REMARK   65  A    between atoms: _157  and  _158
REMARK   66  A    between atoms: _157  and  _160
REMARK   67  A    between atoms: _160  and  _161
REMARK   68  A    between atoms: _161  and  _219
REMARK   69  A    between atoms: _162  and  _164
REMARK   70  A    between atoms: _164  and  _165
REMARK   71  A    between atoms: _167  and  _169
REMARK   72  A    between atoms: _169  and  _170
REMARK   73  A    between atoms: _169  and  _172
REMARK   74  A    between atoms: _172  and  _173
REMARK   75  A    between atoms: _183  and  _185
REMARK   76  A    between atoms: _185  and  _186
REMARK   77  A    between atoms: _188  and  _190
REMARK   78  A    between atoms: _190  and  _191
REMARK   79  A    between atoms: _190  and  _193
REMARK   80  A    between atoms: _193  and  _194
REMARK   81  A    between atoms: _197  and  _199
REMARK   82  A    between atoms: _199  and  _200
REMARK   83  A    between atoms: _199  and  _202
REMARK   84  A    between atoms: _202  and  _203
REMARK   85  A    between atoms: _206  and  _208
REMARK   86  A    between atoms: _208  and  _209
REMARK   87  A    between atoms: _208  and  _211
REMARK   88  A    between atoms: _213  and  _215
REMARK   89  A    between atoms: _215  and  _216
REMARK   90  A    between atoms: _215  and  _218
REMARK   91  A    between atoms: _218  and  _219
REMARK   92  A    between atoms: _220  and  _222
REMARK   93  A    between atoms: _222  and  _223
REMARK   94  A    between atoms: _222  and  _225
REMARK   95  A    between atoms: _225  and  _226
REMARK   96  A    between atoms: _232  and  _234
REMARK   97  A    between atoms: _234  and  _235
REMARK   98  A    between atoms: _234  and  _237
REMARK   99  A    between atoms: _237  and  _238
REMARK  100  A    between atoms: _243  and  _245
REMARK  101  A    between atoms: _245  and  _246
REMARK  102  A    between atoms: _245  and  _248
REMARK  103  A    between atoms: _248  and  _249
REMARK  104  A    between atoms: _252  and  _254
REMARK  105  A    between atoms: _254  and  _255
REMARK  106  A    between atoms: _254  and  _257
REMARK  107  A    between atoms: _257  and  _258
REMARK  108  A    between atoms: _263  and  _264
REMARK  109  A    between atoms: _266  and  _268
REMARK  110  A    between atoms: _268  and  _269
REMARK  111  A    between atoms: _268  and  _271
REMARK  112  A    between atoms: _271  and  _272
REMARK  113  A    between atoms: _272  and  _273
REMARK  114  A    between atoms: _273  and  _274
REMARK  115  A    between atoms: _274  and  _275
REMARK  116  A    between atoms: _279  and  _281
REMARK  117  A    between atoms: _281  and  _282
REMARK  118  A    between atoms: _285  and  _287
REMARK  119  A    between atoms: _287  and  _288
REMARK  120  A    between atoms: _291  and  _293
REMARK  121  A    between atoms: _293  and  _294
REMARK  122  A    between atoms: _293  and  _296
REMARK  123  A    between atoms: _296  and  _297
REMARK                            x       y       z     vdW  Elec       q    Type
REMARK                         _______ _______ _______ _____ _____    ______ ____
ROOT
ATOM      1  O   HOH     1      42.776  26.559   3.402  0.00  0.00    +0.000 OA
ENDROOT
TORSDOF 0
REMARK  Name = ../refined-set-2016/1sv3/1sv3_pocket.pdb
REMARK  123 active torsions:
REMARK  status: ('A' for Active; 'I' for Inactive)
REMARK    1  A    between atoms: _1  and  _3
REMARK    2  A    between atoms: _3  and  _4
REMARK    3  A    between atoms: _3  and  _6
REMARK    4  A    between atoms: _6  and  _7
REMARK    5  A    between atoms: _10  and  _12
REMARK    6  A    between atoms: _12  and  _13
REMARK    7  A    between atoms: _12  and  _15
REMARK    8  A    between atoms: _15  and  _16
REMARK    9  A    between atoms: _19  and  _21
REMARK   10  A    between atoms: _21  and  _22
REMARK   11  A    between atoms: _21  and  _24
REMARK   12  A    between atoms: _24  and  _25
REMARK   13  A    between atoms: _31  and  _33
REMARK   14  A    between atoms: _33  and  _34
REMARK   15  A    between atoms: _36  and  _38
REMARK   16  A    between atoms: _38  and  _39
REMARK   17  A    between atoms: _38  and  _41
REMARK   18  A    between atoms: _41  and  _42
REMARK   19  A    between atoms: _42  and  _43
REMARK   20  A    between atoms: _43  and  _44
REMARK   21  A    between atoms: _44  and  _45
REMARK   22  A    between atoms: _49  and  _51
REMARK   23  A    between atoms: _51  and  _52
REMARK   24  A    between atoms: _51  and  _54
REMARK   25  A    between atoms: _54  and  _55
REMARK   26  A    between atoms: _58  and  _60
REMARK   27  A    between atoms: _60  and  _61
REMARK   28  A    between atoms: _60  and  _63
REMARK   29  A    between atoms: _63  and  _64
REMARK   30  A    between atoms: _67  and  _69
REMARK   31  A    between atoms: _69  and  _70
REMARK   32  A    between atoms: _73  and  _75
REMARK   33  A    between atoms: _75  and  _76
REMARK   34  A    between atoms: _75  and  _78
REMARK   35  A    between atoms: _78  and  _79
REMARK   36  A    between atoms: _83  and  _84
REMARK   37  A    between atoms: _89  and  _91
REMARK   38  A    between atoms: _91  and  _92
REMARK   39  A    between atoms: _91  and  _94
REMARK   40  A    between atoms: _94  and  _95
REMARK   41  A    between atoms: _97  and  _99
REMARK   42  A    between atoms: _99  and  _100
REMARK   43  A    between atoms: _99  and  _102
REMARK   44  A    between atoms: _102  and  _103
REMARK   45  A    between atoms: _108  and  _109
REMARK   46  A    between atoms: _111  and  _113
REMARK   47  A    between atoms: _113  and  _114
REMARK   48  A    between atoms: _113  and  _116
REMARK   49  A    between atoms: _116  and  _117
REMARK   50  A    between atoms: _119  and  _121
REMARK   51  A    between atoms: _121  and  _122
REMARK   52  A    between atoms: _121  and  _124
REMARK   53  A    between atoms: _124  and  _125
REMARK   54  A    between atoms: _127  and  _129
REMARK   55  A    between atoms: _129  and  _130
REMARK   56  A    between atoms: _129  and  _132
REMARK   57  A    between atoms: _132  and  _133
REMARK   58  A    between atoms: _138  and  _139
REMARK   59  A    between atoms: _141  and  _143
REMARK   60  A    between atoms: _143  and  _144
REMARK   61  A    between atoms: _143  and  _146
REMARK   62  A    between atoms: _146  and  _147
REMARK   63  A    between atoms: _152  and  _153
REMARK   64  A    between atoms: _155  and  _157
REMARK   65  A    between atoms: _157  and  _158
REMARK   66  A    between atoms: _157  and  _160
REMARK   67  A    between atoms: _160  and  _161
REMARK   68  A    between atoms: _161  and  _219
REMARK   69  A    between atoms: _162  and  _164
REMARK   70  A    between atoms: _164  and  _165
REMARK   71  A    between atoms: _167  and  _169
REMARK   72  A    between atoms: _169  and  _170
REMARK   73  A    between atoms: _169  and  _172
REMARK   74  A    between atoms: _172  and  _173
REMARK   75  A    between atoms: _183  and  _185
REMARK   76  A    between atoms: _185  and  _186
REMARK   77  A    between atoms: _188  and  _190
REMARK   78  A    between atoms: _190  and  _191
REMARK   79  A    between atoms: _190  and  _193
REMARK   80  A    between atoms: _193  and  _194
REMARK   81  A    between atoms: _197  and  _199
REMARK   82  A    between atoms: _199  and  _200
REMARK   83  A    between atoms: _199  and  _202
REMARK   84  A    between atoms: _202  and  _203
REMARK   85  A    between atoms: _206  and  _208
REMARK   86  A    between atoms: _208  and  _209
REMARK   87  A    between atoms: _208  and  _211
REMARK   88  A    between atoms: _213  and  _215
REMARK   89  A    between atoms: _215  and  _216
REMARK   90  A    between atoms: _215  and  _218
REMARK   91  A    between atoms: _218  and  _219
REMARK   92  A    between atoms: _220  and  _222
REMARK   93  A    between atoms: _222  and  _223
REMARK   94  A    between atoms: _222  and  _225
REMARK   95  A    between atoms: _225  and  _226
REMARK   96  A    between atoms: _232  and  _234
REMARK   97  A    between atoms: _234  and  _235
REMARK   98  A    between atoms: _234  and  _237
REMARK   99  A    between atoms: _237  and  _238
REMARK  100  A    between atoms: _243  and  _245
REMARK  101  A    between atoms: _245  and  _246
REMARK  102  A    between atoms: _245  and  _248
REMARK  103  A    between atoms: _248  and  _249
REMARK  104  A    between atoms: _252  and  _254
REMARK  105  A    between atoms: _254  and  _255
REMARK  106  A    between atoms: _254  and  _257
REMARK  107  A    between atoms: _257  and  _258
REMARK  108  A    between atoms: _263  and  _264
REMARK  109  A    between atoms: _266  and  _268
REMARK  110  A    between atoms: _268  and  _269
REMARK  111  A    between atoms: _268  and  _271
REMARK  112  A    between atoms: _271  and  _272
REMARK  113  A    between atoms: _272  and  _273
REMARK  114  A    between atoms: _273  and  _274
REMARK  115  A    between atoms: _274  and  _275
REMARK  116  A    between atoms: _279  and  _281
REMARK  117  A    between atoms: _281  and  _282
REMARK  118  A    between atoms: _285  and  _287
REMARK  119  A    between atoms: _287  and  _288
REMARK  120  A    between atoms: _291  and  _293
REMARK  121  A    between atoms: _293  and  _294
REMARK  122  A    between atoms: _293  and  _296
REMARK  123  A    between atoms: _296  and  _297
REMARK                            x       y       z     vdW  Elec       q    Type
REMARK                         _______ _______ _______ _____ _____    ______ ____
ROOT
ATOM      1  O   HOH     1      40.641  35.920   7.712  0.00  0.00    +0.000 OA
ENDROOT
TORSDOF 0
REMARK  Name = ../refined-set-2016/1sv3/1sv3_pocket.pdb
REMARK  123 active torsions:
REMARK  status: ('A' for Active; 'I' for Inactive)
REMARK    1  A    between atoms: _1  and  _3
REMARK    2  A    between atoms: _3  and  _4
REMARK    3  A    between atoms: _3  and  _6
REMARK    4  A    between atoms: _6  and  _7
REMARK    5  A    between atoms: _10  and  _12
REMARK    6  A    between atoms: _12  and  _13
REMARK    7  A    between atoms: _12  and  _15
REMARK    8  A    between atoms: _15  and  _16
REMARK    9  A    between atoms: _19  and  _21
REMARK   10  A    between atoms: _21  and  _22
REMARK   11  A    between atoms: _21  and  _24
REMARK   12  A    between atoms: _24  and  _25
REMARK   13  A    between atoms: _31  and  _33
REMARK   14  A    between atoms: _33  and  _34
REMARK   15  A    between atoms: _36  and  _38
REMARK   16  A    between atoms: _38  and  _39
REMARK   17  A    between atoms: _38  and  _41
REMARK   18  A    between atoms: _41  and  _42
REMARK   19  A    between atoms: _42  and  _43
REMARK   20  A    between atoms: _43  and  _44
REMARK   21  A    between atoms: _44  and  _45
REMARK   22  A    between atoms: _49  and  _51
REMARK   23  A    between atoms: _51  and  _52
REMARK   24  A    between atoms: _51  and  _54
REMARK   25  A    between atoms: _54  and  _55
REMARK   26  A    between atoms: _58  and  _60
REMARK   27  A    between atoms: _60  and  _61
REMARK   28  A    between atoms: _60  and  _63
REMARK   29  A    between atoms: _63  and  _64
REMARK   30  A    between atoms: _67  and  _69
REMARK   31  A    between atoms: _69  and  _70
REMARK   32  A    between atoms: _73  and  _75
REMARK   33  A    between atoms: _75  and  _76
REMARK   34  A    between atoms: _75  and  _78
REMARK   35  A    between atoms: _78  and  _79
REMARK   36  A    between atoms: _83  and  _84
REMARK   37  A    between atoms: _89  and  _91
REMARK   38  A    between atoms: _91  and  _92
REMARK   39  A    between atoms: _91  and  _94
REMARK   40  A    between atoms: _94  and  _95
REMARK   41  A    between atoms: _97  and  _99
REMARK   42  A    between atoms: _99  and  _100
REMARK   43  A    between atoms: _99  and  _102
REMARK   44  A    between atoms: _102  and  _103
REMARK   45  A    between atoms: _108  and  _109
REMARK   46  A    between atoms: _111  and  _113
REMARK   47  A    between atoms: _113  and  _114
REMARK   48  A    between atoms: _113  and  _116
REMARK   49  A    between atoms: _116  and  _117
REMARK   50  A    between atoms: _119  and  _121
REMARK   51  A    between atoms: _121  and  _122
REMARK   52  A    between atoms: _121  and  _124
REMARK   53  A    between atoms: _124  and  _125
REMARK   54  A    between atoms: _127  and  _129
REMARK   55  A    between atoms: _129  and  _130
REMARK   56  A    between atoms: _129  and  _132
REMARK   57  A    between atoms: _132  and  _133
REMARK   58  A    between atoms: _138  and  _139
REMARK   59  A    between atoms: _141  and  _143
REMARK   60  A    between atoms: _143  and  _144
REMARK   61  A    between atoms: _143  and  _146
REMARK   62  A    between atoms: _146  and  _147
REMARK   63  A    between atoms: _152  and  _153
REMARK   64  A    between atoms: _155  and  _157
REMARK   65  A    between atoms: _157  and  _158
REMARK   66  A    between atoms: _157  and  _160
REMARK   67  A    between atoms: _160  and  _161
REMARK   68  A    between atoms: _161  and  _219
REMARK   69  A    between atoms: _162  and  _164
REMARK   70  A    between atoms: _164  and  _165
REMARK   71  A    between atoms: _167  and  _169
REMARK   72  A    between atoms: _169  and  _170
REMARK   73  A    between atoms: _169  and  _172
REMARK   74  A    between atoms: _172  and  _173
REMARK   75  A    between atoms: _183  and  _185
REMARK   76  A    between atoms: _185  and  _186
REMARK   77  A    between atoms: _188  and  _190
REMARK   78  A    between atoms: _190  and  _191
REMARK   79  A    between atoms: _190  and  _193
REMARK   80  A    between atoms: _193  and  _194
REMARK   81  A    between atoms: _197  and  _199
REMARK   82  A    between atoms: _199  and  _200
REMARK   83  A    between atoms: _199  and  _202
REMARK   84  A    between atoms: _202  and  _203
REMARK   85  A    between atoms: _206  and  _208
REMARK   86  A    between atoms: _208  and  _209
REMARK   87  A    between atoms: _208  and  _211
REMARK   88  A    between atoms: _213  and  _215
REMARK   89  A    between atoms: _215  and  _216
REMARK   90  A    between atoms: _215  and  _218
REMARK   91  A    between atoms: _218  and  _219
REMARK   92  A    between atoms: _220  and  _222
REMARK   93  A    between atoms: _222  and  _223
REMARK   94  A    between atoms: _222  and  _225
REMARK   95  A    between atoms: _225  and  _226
REMARK   96  A    between atoms: _232  and  _234
REMARK   97  A    between atoms: _234  and  _235
REMARK   98  A    between atoms: _234  and  _237
REMARK   99  A    between atoms: _237  and  _238
REMARK  100  A    between atoms: _243  and  _245
REMARK  101  A    between atoms: _245  and  _246
REMARK  102  A    between atoms: _245  and  _248
REMARK  103  A    between atoms: _248  and  _249
REMARK  104  A    between atoms: _252  and  _254
REMARK  105  A    between atoms: _254  and  _255
REMARK  106  A    between atoms: _254  and  _257
REMARK  107  A    between atoms: _257  and  _258
REMARK  108  A    between atoms: _263  and  _264
REMARK  109  A    between atoms: _266  and  _268
REMARK  110  A    between atoms: _268  and  _269
REMARK  111  A    between atoms: _268  and  _271
REMARK  112  A    between atoms: _271  and  _272
REMARK  113  A    between atoms: _272  and  _273
REMARK  114  A    between atoms: _273  and  _274
REMARK  115  A    between atoms: _274  and  _275
REMARK  116  A    between atoms: _279  and  _281
REMARK  117  A    between atoms: _281  and  _282
REMARK  118  A    between atoms: _285  and  _287
REMARK  119  A    between atoms: _287  and  _288
REMARK  120  A    between atoms: _291  and  _293
REMARK  121  A    between atoms: _293  and  _294
REMARK  122  A    between atoms: _293  and  _296
REMARK  123  A    between atoms: _296  and  _297
REMARK                            x       y       z     vdW  Elec       q    Type
REMARK                         _______ _______ _______ _____ _____    ______ ____
ROOT
ATOM      1  O   HOH     1      52.514  24.179   4.482  0.00  0.00    +0.000 OA
ENDROOT
TORSDOF 0
REMARK  Name = ../refined-set-2016/1sv3/1sv3_pocket.pdb
REMARK  123 active torsions:
REMARK  status: ('A' for Active; 'I' for Inactive)
REMARK    1  A    between atoms: _1  and  _3
REMARK    2  A    between atoms: _3  and  _4
REMARK    3  A    between atoms: _3  and  _6
REMARK    4  A    between atoms: _6  and  _7
REMARK    5  A    between atoms: _10  and  _12
REMARK    6  A    between atoms: _12  and  _13
REMARK    7  A    between atoms: _12  and  _15
REMARK    8  A    between atoms: _15  and  _16
REMARK    9  A    between atoms: _19  and  _21
REMARK   10  A    between atoms: _21  and  _22
REMARK   11  A    between atoms: _21  and  _24
REMARK   12  A    between atoms: _24  and  _25
REMARK   13  A    between atoms: _31  and  _33
REMARK   14  A    between atoms: _33  and  _34
REMARK   15  A    between atoms: _36  and  _38
REMARK   16  A    between atoms: _38  and  _39
REMARK   17  A    between atoms: _38  and  _41
REMARK   18  A    between atoms: _41  and  _42
REMARK   19  A    between atoms: _42  and  _43
REMARK   20  A    between atoms: _43  and  _44
REMARK   21  A    between atoms: _44  and  _45
REMARK   22  A    between atoms: _49  and  _51
REMARK   23  A    between atoms: _51  and  _52
REMARK   24  A    between atoms: _51  and  _54
REMARK   25  A    between atoms: _54  and  _55
REMARK   26  A    between atoms: _58  and  _60
REMARK   27  A    between atoms: _60  and  _61
REMARK   28  A    between atoms: _60  and  _63
REMARK   29  A    between atoms: _63  and  _64
REMARK   30  A    between atoms: _67  and  _69
REMARK   31  A    between atoms: _69  and  _70
REMARK   32  A    between atoms: _73  and  _75
REMARK   33  A    between atoms: _75  and  _76
REMARK   34  A    between atoms: _75  and  _78
REMARK   35  A    between atoms: _78  and  _79
REMARK   36  A    between atoms: _83  and  _84
REMARK   37  A    between atoms: _89  and  _91
REMARK   38  A    between atoms: _91  and  _92
REMARK   39  A    between atoms: _91  and  _94
REMARK   40  A    between atoms: _94  and  _95
REMARK   41  A    between atoms: _97  and  _99
REMARK   42  A    between atoms: _99  and  _100
REMARK   43  A    between atoms: _99  and  _102
REMARK   44  A    between atoms: _102  and  _103
REMARK   45  A    between atoms: _108  and  _109
REMARK   46  A    between atoms: _111  and  _113
REMARK   47  A    between atoms: _113  and  _114
REMARK   48  A    between atoms: _113  and  _116
REMARK   49  A    between atoms: _116  and  _117
REMARK   50  A    between atoms: _119  and  _121
REMARK   51  A    between atoms: _121  and  _122
REMARK   52  A    between atoms: _121  and  _124
REMARK   53  A    between atoms: _124  and  _125
REMARK   54  A    between atoms: _127  and  _129
REMARK   55  A    between atoms: _129  and  _130
REMARK   56  A    between atoms: _129  and  _132
REMARK   57  A    between atoms: _132  and  _133
REMARK   58  A    between atoms: _138  and  _139
REMARK   59  A    between atoms: _141  and  _143
REMARK   60  A    between atoms: _143  and  _144
REMARK   61  A    between atoms: _143  and  _146
REMARK   62  A    between atoms: _146  and  _147
REMARK   63  A    between atoms: _152  and  _153
REMARK   64  A    between atoms: _155  and  _157
REMARK   65  A    between atoms: _157  and  _158
REMARK   66  A    between atoms: _157  and  _160
REMARK   67  A    between atoms: _160  and  _161
REMARK   68  A    between atoms: _161  and  _219
REMARK   69  A    between atoms: _162  and  _164
REMARK   70  A    between atoms: _164  and  _165
REMARK   71  A    between atoms: _167  and  _169
REMARK   72  A    between atoms: _169  and  _170
REMARK   73  A    between atoms: _169  and  _172
REMARK   74  A    between atoms: _172  and  _173
REMARK   75  A    between atoms: _183  and  _185
REMARK   76  A    between atoms: _185  and  _186
REMARK   77  A    between atoms: _188  and  _190
REMARK   78  A    between atoms: _190  and  _191
REMARK   79  A    between atoms: _190  and  _193
REMARK   80  A    between atoms: _193  and  _194
REMARK   81  A    between atoms: _197  and  _199
REMARK   82  A    between atoms: _199  and  _200
REMARK   83  A    between atoms: _199  and  _202
REMARK   84  A    between atoms: _202  and  _203
REMARK   85  A    between atoms: _206  and  _208
REMARK   86  A    between atoms: _208  and  _209
REMARK   87  A    between atoms: _208  and  _211
REMARK   88  A    between atoms: _213  and  _215
REMARK   89  A    between atoms: _215  and  _216
REMARK   90  A    between atoms: _215  and  _218
REMARK   91  A    between atoms: _218  and  _219
REMARK   92  A    between atoms: _220  and  _222
REMARK   93  A    between atoms: _222  and  _223
REMARK   94  A    between atoms: _222  and  _225
REMARK   95  A    between atoms: _225  and  _226
REMARK   96  A    between atoms: _232  and  _234
REMARK   97  A    between atoms: _234  and  _235
REMARK   98  A    between atoms: _234  and  _237
REMARK   99  A    between atoms: _237  and  _238
REMARK  100  A    between atoms: _243  and  _245
REMARK  101  A    between atoms: _245  and  _246
REMARK  102  A    between atoms: _245  and  _248
REMARK  103  A    between atoms: _248  and  _249
REMARK  104  A    between atoms: _252  and  _254
REMARK  105  A    between atoms: _254  and  _255
REMARK  106  A    between atoms: _254  and  _257
REMARK  107  A    between atoms: _257  and  _258
REMARK  108  A    between atoms: _263  and  _264
REMARK  109  A    between atoms: _266  and  _268
REMARK  110  A    between atoms: _268  and  _269
REMARK  111  A    between atoms: _268  and  _271
REMARK  112  A    between atoms: _271  and  _272
REMARK  113  A    between atoms: _272  and  _273
REMARK  114  A    between atoms: _273  and  _274
REMARK  115  A    between atoms: _274  and  _275
REMARK  116  A    between atoms: _279  and  _281
REMARK  117  A    between atoms: _281  and  _282
REMARK  118  A    between atoms: _285  and  _287
REMARK  119  A    between atoms: _287  and  _288
REMARK  120  A    between atoms: _291  and  _293
REMARK  121  A    between atoms: _293  and  _294
REMARK  122  A    between atoms: _293  and  _296
REMARK  123  A    between atoms: _296  and  _297
REMARK                            x       y       z     vdW  Elec       q    Type
REMARK                         _______ _______ _______ _____ _____    ______ ____
ROOT
ATOM      1  O   HOH     1      41.662  24.503   4.866  0.00  0.00    +0.000 OA
ENDROOT
TORSDOF 0
REMARK  Name = ../refined-set-2016/1sv3/1sv3_pocket.pdb
REMARK  123 active torsions:
REMARK  status: ('A' for Active; 'I' for Inactive)
REMARK    1  A    between atoms: _1  and  _3
REMARK    2  A    between atoms: _3  and  _4
REMARK    3  A    between atoms: _3  and  _6
REMARK    4  A    between atoms: _6  and  _7
REMARK    5  A    between atoms: _10  and  _12
REMARK    6  A    between atoms: _12  and  _13
REMARK    7  A    between atoms: _12  and  _15
REMARK    8  A    between atoms: _15  and  _16
REMARK    9  A    between atoms: _19  and  _21
REMARK   10  A    between atoms: _21  and  _22
REMARK   11  A    between atoms: _21  and  _24
REMARK   12  A    between atoms: _24  and  _25
REMARK   13  A    between atoms: _31  and  _33
REMARK   14  A    between atoms: _33  and  _34
REMARK   15  A    between atoms: _36  and  _38
REMARK   16  A    between atoms: _38  and  _39
REMARK   17  A    between atoms: _38  and  _41
REMARK   18  A    between atoms: _41  and  _42
REMARK   19  A    between atoms: _42  and  _43
REMARK   20  A    between atoms: _43  and  _44
REMARK   21  A    between atoms: _44  and  _45
REMARK   22  A    between atoms: _49  and  _51
REMARK   23  A    between atoms: _51  and  _52
REMARK   24  A    between atoms: _51  and  _54
REMARK   25  A    between atoms: _54  and  _55
REMARK   26  A    between atoms: _58  and  _60
REMARK   27  A    between atoms: _60  and  _61
REMARK   28  A    between atoms: _60  and  _63
REMARK   29  A    between atoms: _63  and  _64
REMARK   30  A    between atoms: _67  and  _69
REMARK   31  A    between atoms: _69  and  _70
REMARK   32  A    between atoms: _73  and  _75
REMARK   33  A    between atoms: _75  and  _76
REMARK   34  A    between atoms: _75  and  _78
REMARK   35  A    between atoms: _78  and  _79
REMARK   36  A    between atoms: _83  and  _84
REMARK   37  A    between atoms: _89  and  _91
REMARK   38  A    between atoms: _91  and  _92
REMARK   39  A    between atoms: _91  and  _94
REMARK   40  A    between atoms: _94  and  _95
REMARK   41  A    between atoms: _97  and  _99
REMARK   42  A    between atoms: _99  and  _100
REMARK   43  A    between atoms: _99  and  _102
REMARK   44  A    between atoms: _102  and  _103
REMARK   45  A    between atoms: _108  and  _109
REMARK   46  A    between atoms: _111  and  _113
REMARK   47  A    between atoms: _113  and  _114
REMARK   48  A    between atoms: _113  and  _116
REMARK   49  A    between atoms: _116  and  _117
REMARK   50  A    between atoms: _119  and  _121
REMARK   51  A    between atoms: _121  and  _122
REMARK   52  A    between atoms: _121  and  _124
REMARK   53  A    between atoms: _124  and  _125
REMARK   54  A    between atoms: _127  and  _129
REMARK   55  A    between atoms: _129  and  _130
REMARK   56  A    between atoms: _129  and  _132
REMARK   57  A    between atoms: _132  and  _133
REMARK   58  A    between atoms: _138  and  _139
REMARK   59  A    between atoms: _141  and  _143
REMARK   60  A    between atoms: _143  and  _144
REMARK   61  A    between atoms: _143  and  _146
REMARK   62  A    between atoms: _146  and  _147
REMARK   63  A    between atoms: _152  and  _153
REMARK   64  A    between atoms: _155  and  _157
REMARK   65  A    between atoms: _157  and  _158
REMARK   66  A    between atoms: _157  and  _160
REMARK   67  A    between atoms: _160  and  _161
REMARK   68  A    between atoms: _161  and  _219
REMARK   69  A    between atoms: _162  and  _164
REMARK   70  A    between atoms: _164  and  _165
REMARK   71  A    between atoms: _167  and  _169
REMARK   72  A    between atoms: _169  and  _170
REMARK   73  A    between atoms: _169  and  _172
REMARK   74  A    between atoms: _172  and  _173
REMARK   75  A    between atoms: _183  and  _185
REMARK   76  A    between atoms: _185  and  _186
REMARK   77  A    between atoms: _188  and  _190
REMARK   78  A    between atoms: _190  and  _191
REMARK   79  A    between atoms: _190  and  _193
REMARK   80  A    between atoms: _193  and  _194
REMARK   81  A    between atoms: _197  and  _199
REMARK   82  A    between atoms: _199  and  _200
REMARK   83  A    between atoms: _199  and  _202
REMARK   84  A    between atoms: _202  and  _203
REMARK   85  A    between atoms: _206  and  _208
REMARK   86  A    between atoms: _208  and  _209
REMARK   87  A    between atoms: _208  and  _211
REMARK   88  A    between atoms: _213  and  _215
REMARK   89  A    between atoms: _215  and  _216
REMARK   90  A    between atoms: _215  and  _218
REMARK   91  A    between atoms: _218  and  _219
REMARK   92  A    between atoms: _220  and  _222
REMARK   93  A    between atoms: _222  and  _223
REMARK   94  A    between atoms: _222  and  _225
REMARK   95  A    between atoms: _225  and  _226
REMARK   96  A    between atoms: _232  and  _234
REMARK   97  A    between atoms: _234  and  _235
REMARK   98  A    between atoms: _234  and  _237
REMARK   99  A    between atoms: _237  and  _238
REMARK  100  A    between atoms: _243  and  _245
REMARK  101  A    between atoms: _245  and  _246
REMARK  102  A    between atoms: _245  and  _248
REMARK  103  A    between atoms: _248  and  _249
REMARK  104  A    between atoms: _252  and  _254
REMARK  105  A    between atoms: _254  and  _255
REMARK  106  A    between atoms: _254  and  _257
REMARK  107  A    between atoms: _257  and  _258
REMARK  108  A    between atoms: _263  and  _264
REMARK  109  A    between atoms: _266  and  _268
REMARK  110  A    between atoms: _268  and  _269
REMARK  111  A    between atoms: _268  and  _271
REMARK  112  A    between atoms: _271  and  _272
REMARK  113  A    between atoms: _272  and  _273
REMARK  114  A    between atoms: _273  and  _274
REMARK  115  A    between atoms: _274  and  _275
REMARK  116  A    between atoms: _279  and  _281
REMARK  117  A    between atoms: _281  and  _282
REMARK  118  A    between atoms: _285  and  _287
REMARK  119  A    between atoms: _287  and  _288
REMARK  120  A    between atoms: _291  and  _293
REMARK  121  A    between atoms: _293  and  _294
REMARK  122  A    between atoms: _293  and  _296
REMARK  123  A    between atoms: _296  and  _297
REMARK                            x       y       z     vdW  Elec       q    Type
REMARK                         _______ _______ _______ _____ _____    ______ ____
ROOT
ATOM      1  O   HOH     1      42.381  27.495   0.623  0.00  0.00    +0.000 OA
ENDROOT
TORSDOF 0
REMARK  Name = ../refined-set-2016/1sv3/1sv3_pocket.pdb
REMARK  123 active torsions:
REMARK  status: ('A' for Active; 'I' for Inactive)
REMARK    1  A    between atoms: _1  and  _3
REMARK    2  A    between atoms: _3  and  _4
REMARK    3  A    between atoms: _3  and  _6
REMARK    4  A    between atoms: _6  and  _7
REMARK    5  A    between atoms: _10  and  _12
REMARK    6  A    between atoms: _12  and  _13
REMARK    7  A    between atoms: _12  and  _15
REMARK    8  A    between atoms: _15  and  _16
REMARK    9  A    between atoms: _19  and  _21
REMARK   10  A    between atoms: _21  and  _22
REMARK   11  A    between atoms: _21  and  _24
REMARK   12  A    between atoms: _24  and  _25
REMARK   13  A    between atoms: _31  and  _33
REMARK   14  A    between atoms: _33  and  _34
REMARK   15  A    between atoms: _36  and  _38
REMARK   16  A    between atoms: _38  and  _39
REMARK   17  A    between atoms: _38  and  _41
REMARK   18  A    between atoms: _41  and  _42
REMARK   19  A    between atoms: _42  and  _43
REMARK   20  A    between atoms: _43  and  _44
REMARK   21  A    between atoms: _44  and  _45
REMARK   22  A    between atoms: _49  and  _51
REMARK   23  A    between atoms: _51  and  _52
REMARK   24  A    between atoms: _51  and  _54
REMARK   25  A    between atoms: _54  and  _55
REMARK   26  A    between atoms: _58  and  _60
REMARK   27  A    between atoms: _60  and  _61
REMARK   28  A    between atoms: _60  and  _63
REMARK   29  A    between atoms: _63  and  _64
REMARK   30  A    between atoms: _67  and  _69
REMARK   31  A    between atoms: _69  and  _70
REMARK   32  A    between atoms: _73  and  _75
REMARK   33  A    between atoms: _75  and  _76
REMARK   34  A    between atoms: _75  and  _78
REMARK   35  A    between atoms: _78  and  _79
REMARK   36  A    between atoms: _83  and  _84
REMARK   37  A    between atoms: _89  and  _91
REMARK   38  A    between atoms: _91  and  _92
REMARK   39  A    between atoms: _91  and  _94
REMARK   40  A    between atoms: _94  and  _95
REMARK   41  A    between atoms: _97  and  _99
REMARK   42  A    between atoms: _99  and  _100
REMARK   43  A    between atoms: _99  and  _102
REMARK   44  A    between atoms: _102  and  _103
REMARK   45  A    between atoms: _108  and  _109
REMARK   46  A    between atoms: _111  and  _113
REMARK   47  A    between atoms: _113  and  _114
REMARK   48  A    between atoms: _113  and  _116
REMARK   49  A    between atoms: _116  and  _117
REMARK   50  A    between atoms: _119  and  _121
REMARK   51  A    between atoms: _121  and  _122
REMARK   52  A    between atoms: _121  and  _124
REMARK   53  A    between atoms: _124  and  _125
REMARK   54  A    between atoms: _127  and  _129
REMARK   55  A    between atoms: _129  and  _130
REMARK   56  A    between atoms: _129  and  _132
REMARK   57  A    between atoms: _132  and  _133
REMARK   58  A    between atoms: _138  and  _139
REMARK   59  A    between atoms: _141  and  _143
REMARK   60  A    between atoms: _143  and  _144
REMARK   61  A    between atoms: _143  and  _146
REMARK   62  A    between atoms: _146  and  _147
REMARK   63  A    between atoms: _152  and  _153
REMARK   64  A    between atoms: _155  and  _157
REMARK   65  A    between atoms: _157  and  _158
REMARK   66  A    between atoms: _157  and  _160
REMARK   67  A    between atoms: _160  and  _161
REMARK   68  A    between atoms: _161  and  _219
REMARK   69  A    between atoms: _162  and  _164
REMARK   70  A    between atoms: _164  and  _165
REMARK   71  A    between atoms: _167  and  _169
REMARK   72  A    between atoms: _169  and  _170
REMARK   73  A    between atoms: _169  and  _172
REMARK   74  A    between atoms: _172  and  _173
REMARK   75  A    between atoms: _183  and  _185
REMARK   76  A    between atoms: _185  and  _186
REMARK   77  A    between atoms: _188  and  _190
REMARK   78  A    between atoms: _190  and  _191
REMARK   79  A    between atoms: _190  and  _193
REMARK   80  A    between atoms: _193  and  _194
REMARK   81  A    between atoms: _197  and  _199
REMARK   82  A    between atoms: _199  and  _200
REMARK   83  A    between atoms: _199  and  _202
REMARK   84  A    between atoms: _202  and  _203
REMARK   85  A    between atoms: _206  and  _208
REMARK   86  A    between atoms: _208  and  _209
REMARK   87  A    between atoms: _208  and  _211
REMARK   88  A    between atoms: _213  and  _215
REMARK   89  A    between atoms: _215  and  _216
REMARK   90  A    between atoms: _215  and  _218
REMARK   91  A    between atoms: _218  and  _219
REMARK   92  A    between atoms: _220  and  _222
REMARK   93  A    between atoms: _222  and  _223
REMARK   94  A    between atoms: _222  and  _225
REMARK   95  A    between atoms: _225  and  _226
REMARK   96  A    between atoms: _232  and  _234
REMARK   97  A    between atoms: _234  and  _235
REMARK   98  A    between atoms: _234  and  _237
REMARK   99  A    between atoms: _237  and  _238
REMARK  100  A    between atoms: _243  and  _245
REMARK  101  A    between atoms: _245  and  _246
REMARK  102  A    between atoms: _245  and  _248
REMARK  103  A    between atoms: _248  and  _249
REMARK  104  A    between atoms: _252  and  _254
REMARK  105  A    between atoms: _254  and  _255
REMARK  106  A    between atoms: _254  and  _257
REMARK  107  A    between atoms: _257  and  _258
REMARK  108  A    between atoms: _263  and  _264
REMARK  109  A    between atoms: _266  and  _268
REMARK  110  A    between atoms: _268  and  _269
REMARK  111  A    between atoms: _268  and  _271
REMARK  112  A    between atoms: _271  and  _272
REMARK  113  A    between atoms: _272  and  _273
REMARK  114  A    between atoms: _273  and  _274
REMARK  115  A    between atoms: _274  and  _275
REMARK  116  A    between atoms: _279  and  _281
REMARK  117  A    between atoms: _281  and  _282
REMARK  118  A    between atoms: _285  and  _287
REMARK  119  A    between atoms: _287  and  _288
REMARK  120  A    between atoms: _291  and  _293
REMARK  121  A    between atoms: _293  and  _294
REMARK  122  A    between atoms: _293  and  _296
REMARK  123  A    between atoms: _296  and  _297
REMARK                            x       y       z     vdW  Elec       q    Type
REMARK                         _______ _______ _______ _____ _____    ______ ____
ROOT
ATOM      1  O   HOH     1      40.502  28.188   6.825  0.00  0.00    +0.000 OA
ENDROOT
TORSDOF 0
REMARK  Name = ../refined-set-2016/1sv3/1sv3_pocket.pdb
REMARK  123 active torsions:
REMARK  status: ('A' for Active; 'I' for Inactive)
REMARK    1  A    between atoms: _1  and  _3
REMARK    2  A    between atoms: _3  and  _4
REMARK    3  A    between atoms: _3  and  _6
REMARK    4  A    between atoms: _6  and  _7
REMARK    5  A    between atoms: _10  and  _12
REMARK    6  A    between atoms: _12  and  _13
REMARK    7  A    between atoms: _12  and  _15
REMARK    8  A    between atoms: _15  and  _16
REMARK    9  A    between atoms: _19  and  _21
REMARK   10  A    between atoms: _21  and  _22
REMARK   11  A    between atoms: _21  and  _24
REMARK   12  A    between atoms: _24  and  _25
REMARK   13  A    between atoms: _31  and  _33
REMARK   14  A    between atoms: _33  and  _34
REMARK   15  A    between atoms: _36  and  _38
REMARK   16  A    between atoms: _38  and  _39
REMARK   17  A    between atoms: _38  and  _41
REMARK   18  A    between atoms: _41  and  _42
REMARK   19  A    between atoms: _42  and  _43
REMARK   20  A    between atoms: _43  and  _44
REMARK   21  A    between atoms: _44  and  _45
REMARK   22  A    between atoms: _49  and  _51
REMARK   23  A    between atoms: _51  and  _52
REMARK   24  A    between atoms: _51  and  _54
REMARK   25  A    between atoms: _54  and  _55
REMARK   26  A    between atoms: _58  and  _60
REMARK   27  A    between atoms: _60  and  _61
REMARK   28  A    between atoms: _60  and  _63
REMARK   29  A    between atoms: _63  and  _64
REMARK   30  A    between atoms: _67  and  _69
REMARK   31  A    between atoms: _69  and  _70
REMARK   32  A    between atoms: _73  and  _75
REMARK   33  A    between atoms: _75  and  _76
REMARK   34  A    between atoms: _75  and  _78
REMARK   35  A    between atoms: _78  and  _79
REMARK   36  A    between atoms: _83  and  _84
REMARK   37  A    between atoms: _89  and  _91
REMARK   38  A    between atoms: _91  and  _92
REMARK   39  A    between atoms: _91  and  _94
REMARK   40  A    between atoms: _94  and  _95
REMARK   41  A    between atoms: _97  and  _99
REMARK   42  A    between atoms: _99  and  _100
REMARK   43  A    between atoms: _99  and  _102
REMARK   44  A    between atoms: _102  and  _103
REMARK   45  A    between atoms: _108  and  _109
REMARK   46  A    between atoms: _111  and  _113
REMARK   47  A    between atoms: _113  and  _114
REMARK   48  A    between atoms: _113  and  _116
REMARK   49  A    between atoms: _116  and  _117
REMARK   50  A    between atoms: _119  and  _121
REMARK   51  A    between atoms: _121  and  _122
REMARK   52  A    between atoms: _121  and  _124
REMARK   53  A    between atoms: _124  and  _125
REMARK   54  A    between atoms: _127  and  _129
REMARK   55  A    between atoms: _129  and  _130
REMARK   56  A    between atoms: _129  and  _132
REMARK   57  A    between atoms: _132  and  _133
REMARK   58  A    between atoms: _138  and  _139
REMARK   59  A    between atoms: _141  and  _143
REMARK   60  A    between atoms: _143  and  _144
REMARK   61  A    between atoms: _143  and  _146
REMARK   62  A    between atoms: _146  and  _147
REMARK   63  A    between atoms: _152  and  _153
REMARK   64  A    between atoms: _155  and  _157
REMARK   65  A    between atoms: _157  and  _158
REMARK   66  A    between atoms: _157  and  _160
REMARK   67  A    between atoms: _160  and  _161
REMARK   68  A    between atoms: _161  and  _219
REMARK   69  A    between atoms: _162  and  _164
REMARK   70  A    between atoms: _164  and  _165
REMARK   71  A    between atoms: _167  and  _169
REMARK   72  A    between atoms: _169  and  _170
REMARK   73  A    between atoms: _169  and  _172
REMARK   74  A    between atoms: _172  and  _173
REMARK   75  A    between atoms: _183  and  _185
REMARK   76  A    between atoms: _185  and  _186
REMARK   77  A    between atoms: _188  and  _190
REMARK   78  A    between atoms: _190  and  _191
REMARK   79  A    between atoms: _190  and  _193
REMARK   80  A    between atoms: _193  and  _194
REMARK   81  A    between atoms: _197  and  _199
REMARK   82  A    between atoms: _199  and  _200
REMARK   83  A    between atoms: _199  and  _202
REMARK   84  A    between atoms: _202  and  _203
REMARK   85  A    between atoms: _206  and  _208
REMARK   86  A    between atoms: _208  and  _209
REMARK   87  A    between atoms: _208  and  _211
REMARK   88  A    between atoms: _213  and  _215
REMARK   89  A    between atoms: _215  and  _216
REMARK   90  A    between atoms: _215  and  _218
REMARK   91  A    between atoms: _218  and  _219
REMARK   92  A    between atoms: _220  and  _222
REMARK   93  A    between atoms: _222  and  _223
REMARK   94  A    between atoms: _222  and  _225
REMARK   95  A    between atoms: _225  and  _226
REMARK   96  A    between atoms: _232  and  _234
REMARK   97  A    between atoms: _234  and  _235
REMARK   98  A    between atoms: _234  and  _237
REMARK   99  A    between atoms: _237  and  _238
REMARK  100  A    between atoms: _243  and  _245
REMARK  101  A    between atoms: _245  and  _246
REMARK  102  A    between atoms: _245  and  _248
REMARK  103  A    between atoms: _248  and  _249
REMARK  104  A    between atoms: _252  and  _254
REMARK  105  A    between atoms: _254  and  _255
REMARK  106  A    between atoms: _254  and  _257
REMARK  107  A    between atoms: _257  and  _258
REMARK  108  A    between atoms: _263  and  _264
REMARK  109  A    between atoms: _266  and  _268
REMARK  110  A    between atoms: _268  and  _269
REMARK  111  A    between atoms: _268  and  _271
REMARK  112  A    between atoms: _271  and  _272
REMARK  113  A    between atoms: _272  and  _273
REMARK  114  A    between atoms: _273  and  _274
REMARK  115  A    between atoms: _274  and  _275
REMARK  116  A    between atoms: _279  and  _281
REMARK  117  A    between atoms: _281  and  _282
REMARK  118  A    between atoms: _285  and  _287
REMARK  119  A    between atoms: _287  and  _288
REMARK  120  A    between atoms: _291  and  _293
REMARK  121  A    between atoms: _293  and  _294
REMARK  122  A    between atoms: _293  and  _296
REMARK  123  A    between atoms: _296  and  _297
REMARK                            x       y       z     vdW  Elec       q    Type
REMARK                         _______ _______ _______ _____ _____    ______ ____
ROOT
ATOM      1  O   HOH     1      42.011  36.619  10.336  0.00  0.00    +0.000 OA
ENDROOT
TORSDOF 0
REMARK  Name = ../refined-set-2016/1sv3/1sv3_pocket.pdb
REMARK  123 active torsions:
REMARK  status: ('A' for Active; 'I' for Inactive)
REMARK    1  A    between atoms: _1  and  _3
REMARK    2  A    between atoms: _3  and  _4
REMARK    3  A    between atoms: _3  and  _6
REMARK    4  A    between atoms: _6  and  _7
REMARK    5  A    between atoms: _10  and  _12
REMARK    6  A    between atoms: _12  and  _13
REMARK    7  A    between atoms: _12  and  _15
REMARK    8  A    between atoms: _15  and  _16
REMARK    9  A    between atoms: _19  and  _21
REMARK   10  A    between atoms: _21  and  _22
REMARK   11  A    between atoms: _21  and  _24
REMARK   12  A    between atoms: _24  and  _25
REMARK   13  A    between atoms: _31  and  _33
REMARK   14  A    between atoms: _33  and  _34
REMARK   15  A    between atoms: _36  and  _38
REMARK   16  A    between atoms: _38  and  _39
REMARK   17  A    between atoms: _38  and  _41
REMARK   18  A    between atoms: _41  and  _42
REMARK   19  A    between atoms: _42  and  _43
REMARK   20  A    between atoms: _43  and  _44
REMARK   21  A    between atoms: _44  and  _45
REMARK   22  A    between atoms: _49  and  _51
REMARK   23  A    between atoms: _51  and  _52
REMARK   24  A    between atoms: _51  and  _54
REMARK   25  A    between atoms: _54  and  _55
REMARK   26  A    between atoms: _58  and  _60
REMARK   27  A    between atoms: _60  and  _61
REMARK   28  A    between atoms: _60  and  _63
REMARK   29  A    between atoms: _63  and  _64
REMARK   30  A    between atoms: _67  and  _69
REMARK   31  A    between atoms: _69  and  _70
REMARK   32  A    between atoms: _73  and  _75
REMARK   33  A    between atoms: _75  and  _76
REMARK   34  A    between atoms: _75  and  _78
REMARK   35  A    between atoms: _78  and  _79
REMARK   36  A    between atoms: _83  and  _84
REMARK   37  A    between atoms: _89  and  _91
REMARK   38  A    between atoms: _91  and  _92
REMARK   39  A    between atoms: _91  and  _94
REMARK   40  A    between atoms: _94  and  _95
REMARK   41  A    between atoms: _97  and  _99
REMARK   42  A    between atoms: _99  and  _100
REMARK   43  A    between atoms: _99  and  _102
REMARK   44  A    between atoms: _102  and  _103
REMARK   45  A    between atoms: _108  and  _109
REMARK   46  A    between atoms: _111  and  _113
REMARK   47  A    between atoms: _113  and  _114
REMARK   48  A    between atoms: _113  and  _116
REMARK   49  A    between atoms: _116  and  _117
REMARK   50  A    between atoms: _119  and  _121
REMARK   51  A    between atoms: _121  and  _122
REMARK   52  A    between atoms: _121  and  _124
REMARK   53  A    between atoms: _124  and  _125
REMARK   54  A    between atoms: _127  and  _129
REMARK   55  A    between atoms: _129  and  _130
REMARK   56  A    between atoms: _129  and  _132
REMARK   57  A    between atoms: _132  and  _133
REMARK   58  A    between atoms: _138  and  _139
REMARK   59  A    between atoms: _141  and  _143
REMARK   60  A    between atoms: _143  and  _144
REMARK   61  A    between atoms: _143  and  _146
REMARK   62  A    between atoms: _146  and  _147
REMARK   63  A    between atoms: _152  and  _153
REMARK   64  A    between atoms: _155  and  _157
REMARK   65  A    between atoms: _157  and  _158
REMARK   66  A    between atoms: _157  and  _160
REMARK   67  A    between atoms: _160  and  _161
REMARK   68  A    between atoms: _161  and  _219
REMARK   69  A    between atoms: _162  and  _164
REMARK   70  A    between atoms: _164  and  _165
REMARK   71  A    between atoms: _167  and  _169
REMARK   72  A    between atoms: _169  and  _170
REMARK   73  A    between atoms: _169  and  _172
REMARK   74  A    between atoms: _172  and  _173
REMARK   75  A    between atoms: _183  and  _185
REMARK   76  A    between atoms: _185  and  _186
REMARK   77  A    between atoms: _188  and  _190
REMARK   78  A    between atoms: _190  and  _191
REMARK   79  A    between atoms: _190  and  _193
REMARK   80  A    between atoms: _193  and  _194
REMARK   81  A    between atoms: _197  and  _199
REMARK   82  A    between atoms: _199  and  _200
REMARK   83  A    between atoms: _199  and  _202
REMARK   84  A    between atoms: _202  and  _203
REMARK   85  A    between atoms: _206  and  _208
REMARK   86  A    between atoms: _208  and  _209
REMARK   87  A    between atoms: _208  and  _211
REMARK   88  A    between atoms: _213  and  _215
REMARK   89  A    between atoms: _215  and  _216
REMARK   90  A    between atoms: _215  and  _218
REMARK   91  A    between atoms: _218  and  _219
REMARK   92  A    between atoms: _220  and  _222
REMARK   93  A    between atoms: _222  and  _223
REMARK   94  A    between atoms: _222  and  _225
REMARK   95  A    between atoms: _225  and  _226
REMARK   96  A    between atoms: _232  and  _234
REMARK   97  A    between atoms: _234  and  _235
REMARK   98  A    between atoms: _234  and  _237
REMARK   99  A    between atoms: _237  and  _238
REMARK  100  A    between atoms: _243  and  _245
REMARK  101  A    between atoms: _245  and  _246
REMARK  102  A    between atoms: _245  and  _248
REMARK  103  A    between atoms: _248  and  _249
REMARK  104  A    between atoms: _252  and  _254
REMARK  105  A    between atoms: _254  and  _255
REMARK  106  A    between atoms: _254  and  _257
REMARK  107  A    between atoms: _257  and  _258
REMARK  108  A    between atoms: _263  and  _264
REMARK  109  A    between atoms: _266  and  _268
REMARK  110  A    between atoms: _268  and  _269
REMARK  111  A    between atoms: _268  and  _271
REMARK  112  A    between atoms: _271  and  _272
REMARK  113  A    between atoms: _272  and  _273
REMARK  114  A    between atoms: _273  and  _274
REMARK  115  A    between atoms: _274  and  _275
REMARK  116  A    between atoms: _279  and  _281
REMARK  117  A    between atoms: _281  and  _282
REMARK  118  A    between atoms: _285  and  _287
REMARK  119  A    between atoms: _287  and  _288
REMARK  120  A    between atoms: _291  and  _293
REMARK  121  A    between atoms: _293  and  _294
REMARK  122  A    between atoms: _293  and  _296
REMARK  123  A    between atoms: _296  and  _297
REMARK                            x       y       z     vdW  Elec       q    Type
REMARK                         _______ _______ _______ _____ _____    ______ ____
ROOT
ATOM      1  O   HOH     1      49.464  25.103   9.356  0.00  0.00    +0.000 OA
ENDROOT
TORSDOF 0
REMARK  Name = ../refined-set-2016/1sv3/1sv3_pocket.pdb
REMARK  123 active torsions:
REMARK  status: ('A' for Active; 'I' for Inactive)
REMARK    1  A    between atoms: _1  and  _3
REMARK    2  A    between atoms: _3  and  _4
REMARK    3  A    between atoms: _3  and  _6
REMARK    4  A    between atoms: _6  and  _7
REMARK    5  A    between atoms: _10  and  _12
REMARK    6  A    between atoms: _12  and  _13
REMARK    7  A    between atoms: _12  and  _15
REMARK    8  A    between atoms: _15  and  _16
REMARK    9  A    between atoms: _19  and  _21
REMARK   10  A    between atoms: _21  and  _22
REMARK   11  A    between atoms: _21  and  _24
REMARK   12  A    between atoms: _24  and  _25
REMARK   13  A    between atoms: _31  and  _33
REMARK   14  A    between atoms: _33  and  _34
REMARK   15  A    between atoms: _36  and  _38
REMARK   16  A    between atoms: _38  and  _39
REMARK   17  A    between atoms: _38  and  _41
REMARK   18  A    between atoms: _41  and  _42
REMARK   19  A    between atoms: _42  and  _43
REMARK   20  A    between atoms: _43  and  _44
REMARK   21  A    between atoms: _44  and  _45
REMARK   22  A    between atoms: _49  and  _51
REMARK   23  A    between atoms: _51  and  _52
REMARK   24  A    between atoms: _51  and  _54
REMARK   25  A    between atoms: _54  and  _55
REMARK   26  A    between atoms: _58  and  _60
REMARK   27  A    between atoms: _60  and  _61
REMARK   28  A    between atoms: _60  and  _63
REMARK   29  A    between atoms: _63  and  _64
REMARK   30  A    between atoms: _67  and  _69
REMARK   31  A    between atoms: _69  and  _70
REMARK   32  A    between atoms: _73  and  _75
REMARK   33  A    between atoms: _75  and  _76
REMARK   34  A    between atoms: _75  and  _78
REMARK   35  A    between atoms: _78  and  _79
REMARK   36  A    between atoms: _83  and  _84
REMARK   37  A    between atoms: _89  and  _91
REMARK   38  A    between atoms: _91  and  _92
REMARK   39  A    between atoms: _91  and  _94
REMARK   40  A    between atoms: _94  and  _95
REMARK   41  A    between atoms: _97  and  _99
REMARK   42  A    between atoms: _99  and  _100
REMARK   43  A    between atoms: _99  and  _102
REMARK   44  A    between atoms: _102  and  _103
REMARK   45  A    between atoms: _108  and  _109
REMARK   46  A    between atoms: _111  and  _113
REMARK   47  A    between atoms: _113  and  _114
REMARK   48  A    between atoms: _113  and  _116
REMARK   49  A    between atoms: _116  and  _117
REMARK   50  A    between atoms: _119  and  _121
REMARK   51  A    between atoms: _121  and  _122
REMARK   52  A    between atoms: _121  and  _124
REMARK   53  A    between atoms: _124  and  _125
REMARK   54  A    between atoms: _127  and  _129
REMARK   55  A    between atoms: _129  and  _130
REMARK   56  A    between atoms: _129  and  _132
REMARK   57  A    between atoms: _132  and  _133
REMARK   58  A    between atoms: _138  and  _139
REMARK   59  A    between atoms: _141  and  _143
REMARK   60  A    between atoms: _143  and  _144
REMARK   61  A    between atoms: _143  and  _146
REMARK   62  A    between atoms: _146  and  _147
REMARK   63  A    between atoms: _152  and  _153
REMARK   64  A    between atoms: _155  and  _157
REMARK   65  A    between atoms: _157  and  _158
REMARK   66  A    between atoms: _157  and  _160
REMARK   67  A    between atoms: _160  and  _161
REMARK   68  A    between atoms: _161  and  _219
REMARK   69  A    between atoms: _162  and  _164
REMARK   70  A    between atoms: _164  and  _165
REMARK   71  A    between atoms: _167  and  _169
REMARK   72  A    between atoms: _169  and  _170
REMARK   73  A    between atoms: _169  and  _172
REMARK   74  A    between atoms: _172  and  _173
REMARK   75  A    between atoms: _183  and  _185
REMARK   76  A    between atoms: _185  and  _186
REMARK   77  A    between atoms: _188  and  _190
REMARK   78  A    between atoms: _190  and  _191
REMARK   79  A    between atoms: _190  and  _193
REMARK   80  A    between atoms: _193  and  _194
REMARK   81  A    between atoms: _197  and  _199
REMARK   82  A    between atoms: _199  and  _200
REMARK   83  A    between atoms: _199  and  _202
REMARK   84  A    between atoms: _202  and  _203
REMARK   85  A    between atoms: _206  and  _208
REMARK   86  A    between atoms: _208  and  _209
REMARK   87  A    between atoms: _208  and  _211
REMARK   88  A    between atoms: _213  and  _215
REMARK   89  A    between atoms: _215  and  _216
REMARK   90  A    between atoms: _215  and  _218
REMARK   91  A    between atoms: _218  and  _219
REMARK   92  A    between atoms: _220  and  _222
REMARK   93  A    between atoms: _222  and  _223
REMARK   94  A    between atoms: _222  and  _225
REMARK   95  A    between atoms: _225  and  _226
REMARK   96  A    between atoms: _232  and  _234
REMARK   97  A    between atoms: _234  and  _235
REMARK   98  A    between atoms: _234  and  _237
REMARK   99  A    between atoms: _237  and  _238
REMARK  100  A    between atoms: _243  and  _245
REMARK  101  A    between atoms: _245  and  _246
REMARK  102  A    between atoms: _245  and  _248
REMARK  103  A    between atoms: _248  and  _249
REMARK  104  A    between atoms: _252  and  _254
REMARK  105  A    between atoms: _254  and  _255
REMARK  106  A    between atoms: _254  and  _257
REMARK  107  A    between atoms: _257  and  _258
REMARK  108  A    between atoms: _263  and  _264
REMARK  109  A    between atoms: _266  and  _268
REMARK  110  A    between atoms: _268  and  _269
REMARK  111  A    between atoms: _268  and  _271
REMARK  112  A    between atoms: _271  and  _272
REMARK  113  A    between atoms: _272  and  _273
REMARK  114  A    between atoms: _273  and  _274
REMARK  115  A    between atoms: _274  and  _275
REMARK  116  A    between atoms: _279  and  _281
REMARK  117  A    between atoms: _281  and  _282
REMARK  118  A    between atoms: _285  and  _287
REMARK  119  A    between atoms: _287  and  _288
REMARK  120  A    between atoms: _291  and  _293
REMARK  121  A    between atoms: _293  and  _294
REMARK  122  A    between atoms: _293  and  _296
REMARK  123  A    between atoms: _296  and  _297
REMARK                            x       y       z     vdW  Elec       q    Type
REMARK                         _______ _______ _______ _____ _____    ______ ____
ROOT
ATOM      1  O   HOH     1      49.841  36.006   4.700  0.00  0.00    +0.000 OA
ENDROOT
TORSDOF 0
REMARK  Name = ../refined-set-2016/1sv3/1sv3_pocket.pdb
REMARK  123 active torsions:
REMARK  status: ('A' for Active; 'I' for Inactive)
REMARK    1  A    between atoms: _1  and  _3
REMARK    2  A    between atoms: _3  and  _4
REMARK    3  A    between atoms: _3  and  _6
REMARK    4  A    between atoms: _6  and  _7
REMARK    5  A    between atoms: _10  and  _12
REMARK    6  A    between atoms: _12  and  _13
REMARK    7  A    between atoms: _12  and  _15
REMARK    8  A    between atoms: _15  and  _16
REMARK    9  A    between atoms: _19  and  _21
REMARK   10  A    between atoms: _21  and  _22
REMARK   11  A    between atoms: _21  and  _24
REMARK   12  A    between atoms: _24  and  _25
REMARK   13  A    between atoms: _31  and  _33
REMARK   14  A    between atoms: _33  and  _34
REMARK   15  A    between atoms: _36  and  _38
REMARK   16  A    between atoms: _38  and  _39
REMARK   17  A    between atoms: _38  and  _41
REMARK   18  A    between atoms: _41  and  _42
REMARK   19  A    between atoms: _42  and  _43
REMARK   20  A    between atoms: _43  and  _44
REMARK   21  A    between atoms: _44  and  _45
REMARK   22  A    between atoms: _49  and  _51
REMARK   23  A    between atoms: _51  and  _52
REMARK   24  A    between atoms: _51  and  _54
REMARK   25  A    between atoms: _54  and  _55
REMARK   26  A    between atoms: _58  and  _60
REMARK   27  A    between atoms: _60  and  _61
REMARK   28  A    between atoms: _60  and  _63
REMARK   29  A    between atoms: _63  and  _64
REMARK   30  A    between atoms: _67  and  _69
REMARK   31  A    between atoms: _69  and  _70
REMARK   32  A    between atoms: _73  and  _75
REMARK   33  A    between atoms: _75  and  _76
REMARK   34  A    between atoms: _75  and  _78
REMARK   35  A    between atoms: _78  and  _79
REMARK   36  A    between atoms: _83  and  _84
REMARK   37  A    between atoms: _89  and  _91
REMARK   38  A    between atoms: _91  and  _92
REMARK   39  A    between atoms: _91  and  _94
REMARK   40  A    between atoms: _94  and  _95
REMARK   41  A    between atoms: _97  and  _99
REMARK   42  A    between atoms: _99  and  _100
REMARK   43  A    between atoms: _99  and  _102
REMARK   44  A    between atoms: _102  and  _103
REMARK   45  A    between atoms: _108  and  _109
REMARK   46  A    between atoms: _111  and  _113
REMARK   47  A    between atoms: _113  and  _114
REMARK   48  A    between atoms: _113  and  _116
REMARK   49  A    between atoms: _116  and  _117
REMARK   50  A    between atoms: _119  and  _121
REMARK   51  A    between atoms: _121  and  _122
REMARK   52  A    between atoms: _121  and  _124
REMARK   53  A    between atoms: _124  and  _125
REMARK   54  A    between atoms: _127  and  _129
REMARK   55  A    between atoms: _129  and  _130
REMARK   56  A    between atoms: _129  and  _132
REMARK   57  A    between atoms: _132  and  _133
REMARK   58  A    between atoms: _138  and  _139
REMARK   59  A    between atoms: _141  and  _143
REMARK   60  A    between atoms: _143  and  _144
REMARK   61  A    between atoms: _143  and  _146
REMARK   62  A    between atoms: _146  and  _147
REMARK   63  A    between atoms: _152  and  _153
REMARK   64  A    between atoms: _155  and  _157
REMARK   65  A    between atoms: _157  and  _158
REMARK   66  A    between atoms: _157  and  _160
REMARK   67  A    between atoms: _160  and  _161
REMARK   68  A    between atoms: _161  and  _219
REMARK   69  A    between atoms: _162  and  _164
REMARK   70  A    between atoms: _164  and  _165
REMARK   71  A    between atoms: _167  and  _169
REMARK   72  A    between atoms: _169  and  _170
REMARK   73  A    between atoms: _169  and  _172
REMARK   74  A    between atoms: _172  and  _173
REMARK   75  A    between atoms: _183  and  _185
REMARK   76  A    between atoms: _185  and  _186
REMARK   77  A    between atoms: _188  and  _190
REMARK   78  A    between atoms: _190  and  _191
REMARK   79  A    between atoms: _190  and  _193
REMARK   80  A    between atoms: _193  and  _194
REMARK   81  A    between atoms: _197  and  _199
REMARK   82  A    between atoms: _199  and  _200
REMARK   83  A    between atoms: _199  and  _202
REMARK   84  A    between atoms: _202  and  _203
REMARK   85  A    between atoms: _206  and  _208
REMARK   86  A    between atoms: _208  and  _209
REMARK   87  A    between atoms: _208  and  _211
REMARK   88  A    between atoms: _213  and  _215
REMARK   89  A    between atoms: _215  and  _216
REMARK   90  A    between atoms: _215  and  _218
REMARK   91  A    between atoms: _218  and  _219
REMARK   92  A    between atoms: _220  and  _222
REMARK   93  A    between atoms: _222  and  _223
REMARK   94  A    between atoms: _222  and  _225
REMARK   95  A    between atoms: _225  and  _226
REMARK   96  A    between atoms: _232  and  _234
REMARK   97  A    between atoms: _234  and  _235
REMARK   98  A    between atoms: _234  and  _237
REMARK   99  A    between atoms: _237  and  _238
REMARK  100  A    between atoms: _243  and  _245
REMARK  101  A    between atoms: _245  and  _246
REMARK  102  A    between atoms: _245  and  _248
REMARK  103  A    between atoms: _248  and  _249
REMARK  104  A    between atoms: _252  and  _254
REMARK  105  A    between atoms: _254  and  _255
REMARK  106  A    between atoms: _254  and  _257
REMARK  107  A    between atoms: _257  and  _258
REMARK  108  A    between atoms: _263  and  _264
REMARK  109  A    between atoms: _266  and  _268
REMARK  110  A    between atoms: _268  and  _269
REMARK  111  A    between atoms: _268  and  _271
REMARK  112  A    between atoms: _271  and  _272
REMARK  113  A    between atoms: _272  and  _273
REMARK  114  A    between atoms: _273  and  _274
REMARK  115  A    between atoms: _274  and  _275
REMARK  116  A    between atoms: _279  and  _281
REMARK  117  A    between atoms: _281  and  _282
REMARK  118  A    between atoms: _285  and  _287
REMARK  119  A    between atoms: _287  and  _288
REMARK  120  A    between atoms: _291  and  _293
REMARK  121  A    between atoms: _293  and  _294
REMARK  122  A    between atoms: _293  and  _296
REMARK  123  A    between atoms: _296  and  _297
REMARK                            x       y       z     vdW  Elec       q    Type
REMARK                         _______ _______ _______ _____ _____    ______ ____
ROOT
ATOM      1  O   HOH     1      52.936  38.661   7.123  0.00  0.00    +0.000 OA
ENDROOT
TORSDOF 0
REMARK  Name = ../refined-set-2016/1sv3/1sv3_pocket.pdb
REMARK  123 active torsions:
REMARK  status: ('A' for Active; 'I' for Inactive)
REMARK    1  A    between atoms: _1  and  _3
REMARK    2  A    between atoms: _3  and  _4
REMARK    3  A    between atoms: _3  and  _6
REMARK    4  A    between atoms: _6  and  _7
REMARK    5  A    between atoms: _10  and  _12
REMARK    6  A    between atoms: _12  and  _13
REMARK    7  A    between atoms: _12  and  _15
REMARK    8  A    between atoms: _15  and  _16
REMARK    9  A    between atoms: _19  and  _21
REMARK   10  A    between atoms: _21  and  _22
REMARK   11  A    between atoms: _21  and  _24
REMARK   12  A    between atoms: _24  and  _25
REMARK   13  A    between atoms: _31  and  _33
REMARK   14  A    between atoms: _33  and  _34
REMARK   15  A    between atoms: _36  and  _38
REMARK   16  A    between atoms: _38  and  _39
REMARK   17  A    between atoms: _38  and  _41
REMARK   18  A    between atoms: _41  and  _42
REMARK   19  A    between atoms: _42  and  _43
REMARK   20  A    between atoms: _43  and  _44
REMARK   21  A    between atoms: _44  and  _45
REMARK   22  A    between atoms: _49  and  _51
REMARK   23  A    between atoms: _51  and  _52
REMARK   24  A    between atoms: _51  and  _54
REMARK   25  A    between atoms: _54  and  _55
REMARK   26  A    between atoms: _58  and  _60
REMARK   27  A    between atoms: _60  and  _61
REMARK   28  A    between atoms: _60  and  _63
REMARK   29  A    between atoms: _63  and  _64
REMARK   30  A    between atoms: _67  and  _69
REMARK   31  A    between atoms: _69  and  _70
REMARK   32  A    between atoms: _73  and  _75
REMARK   33  A    between atoms: _75  and  _76
REMARK   34  A    between atoms: _75  and  _78
REMARK   35  A    between atoms: _78  and  _79
REMARK   36  A    between atoms: _83  and  _84
REMARK   37  A    between atoms: _89  and  _91
REMARK   38  A    between atoms: _91  and  _92
REMARK   39  A    between atoms: _91  and  _94
REMARK   40  A    between atoms: _94  and  _95
REMARK   41  A    between atoms: _97  and  _99
REMARK   42  A    between atoms: _99  and  _100
REMARK   43  A    between atoms: _99  and  _102
REMARK   44  A    between atoms: _102  and  _103
REMARK   45  A    between atoms: _108  and  _109
REMARK   46  A    between atoms: _111  and  _113
REMARK   47  A    between atoms: _113  and  _114
REMARK   48  A    between atoms: _113  and  _116
REMARK   49  A    between atoms: _116  and  _117
REMARK   50  A    between atoms: _119  and  _121
REMARK   51  A    between atoms: _121  and  _122
REMARK   52  A    between atoms: _121  and  _124
REMARK   53  A    between atoms: _124  and  _125
REMARK   54  A    between atoms: _127  and  _129
REMARK   55  A    between atoms: _129  and  _130
REMARK   56  A    between atoms: _129  and  _132
REMARK   57  A    between atoms: _132  and  _133
REMARK   58  A    between atoms: _138  and  _139
REMARK   59  A    between atoms: _141  and  _143
REMARK   60  A    between atoms: _143  and  _144
REMARK   61  A    between atoms: _143  and  _146
REMARK   62  A    between atoms: _146  and  _147
REMARK   63  A    between atoms: _152  and  _153
REMARK   64  A    between atoms: _155  and  _157
REMARK   65  A    between atoms: _157  and  _158
REMARK   66  A    between atoms: _157  and  _160
REMARK   67  A    between atoms: _160  and  _161
REMARK   68  A    between atoms: _161  and  _219
REMARK   69  A    between atoms: _162  and  _164
REMARK   70  A    between atoms: _164  and  _165
REMARK   71  A    between atoms: _167  and  _169
REMARK   72  A    between atoms: _169  and  _170
REMARK   73  A    between atoms: _169  and  _172
REMARK   74  A    between atoms: _172  and  _173
REMARK   75  A    between atoms: _183  and  _185
REMARK   76  A    between atoms: _185  and  _186
REMARK   77  A    between atoms: _188  and  _190
REMARK   78  A    between atoms: _190  and  _191
REMARK   79  A    between atoms: _190  and  _193
REMARK   80  A    between atoms: _193  and  _194
REMARK   81  A    between atoms: _197  and  _199
REMARK   82  A    between atoms: _199  and  _200
REMARK   83  A    between atoms: _199  and  _202
REMARK   84  A    between atoms: _202  and  _203
REMARK   85  A    between atoms: _206  and  _208
REMARK   86  A    between atoms: _208  and  _209
REMARK   87  A    between atoms: _208  and  _211
REMARK   88  A    between atoms: _213  and  _215
REMARK   89  A    between atoms: _215  and  _216
REMARK   90  A    between atoms: _215  and  _218
REMARK   91  A    between atoms: _218  and  _219
REMARK   92  A    between atoms: _220  and  _222
REMARK   93  A    between atoms: _222  and  _223
REMARK   94  A    between atoms: _222  and  _225
REMARK   95  A    between atoms: _225  and  _226
REMARK   96  A    between atoms: _232  and  _234
REMARK   97  A    between atoms: _234  and  _235
REMARK   98  A    between atoms: _234  and  _237
REMARK   99  A    between atoms: _237  and  _238
REMARK  100  A    between atoms: _243  and  _245
REMARK  101  A    between atoms: _245  and  _246
REMARK  102  A    between atoms: _245  and  _248
REMARK  103  A    between atoms: _248  and  _249
REMARK  104  A    between atoms: _252  and  _254
REMARK  105  A    between atoms: _254  and  _255
REMARK  106  A    between atoms: _254  and  _257
REMARK  107  A    between atoms: _257  and  _258
REMARK  108  A    between atoms: _263  and  _264
REMARK  109  A    between atoms: _266  and  _268
REMARK  110  A    between atoms: _268  and  _269
REMARK  111  A    between atoms: _268  and  _271
REMARK  112  A    between atoms: _271  and  _272
REMARK  113  A    between atoms: _272  and  _273
REMARK  114  A    between atoms: _273  and  _274
REMARK  115  A    between atoms: _274  and  _275
REMARK  116  A    between atoms: _279  and  _281
REMARK  117  A    between atoms: _281  and  _282
REMARK  118  A    between atoms: _285  and  _287
REMARK  119  A    between atoms: _287  and  _288
REMARK  120  A    between atoms: _291  and  _293
REMARK  121  A    between atoms: _293  and  _294
REMARK  122  A    between atoms: _293  and  _296
REMARK  123  A    between atoms: _296  and  _297
REMARK                            x       y       z     vdW  Elec       q    Type
REMARK                         _______ _______ _______ _____ _____    ______ ____
ROOT
ATOM      1  O   HOH     1      41.994  28.900   4.645  0.00  0.00    +0.000 OA
ENDROOT
TORSDOF 0
REMARK  Name = ../refined-set-2016/1sv3/1sv3_pocket.pdb
REMARK  123 active torsions:
REMARK  status: ('A' for Active; 'I' for Inactive)
REMARK    1  A    between atoms: _1  and  _3
REMARK    2  A    between atoms: _3  and  _4
REMARK    3  A    between atoms: _3  and  _6
REMARK    4  A    between atoms: _6  and  _7
REMARK    5  A    between atoms: _10  and  _12
REMARK    6  A    between atoms: _12  and  _13
REMARK    7  A    between atoms: _12  and  _15
REMARK    8  A    between atoms: _15  and  _16
REMARK    9  A    between atoms: _19  and  _21
REMARK   10  A    between atoms: _21  and  _22
REMARK   11  A    between atoms: _21  and  _24
REMARK   12  A    between atoms: _24  and  _25
REMARK   13  A    between atoms: _31  and  _33
REMARK   14  A    between atoms: _33  and  _34
REMARK   15  A    between atoms: _36  and  _38
REMARK   16  A    between atoms: _38  and  _39
REMARK   17  A    between atoms: _38  and  _41
REMARK   18  A    between atoms: _41  and  _42
REMARK   19  A    between atoms: _42  and  _43
REMARK   20  A    between atoms: _43  and  _44
REMARK   21  A    between atoms: _44  and  _45
REMARK   22  A    between atoms: _49  and  _51
REMARK   23  A    between atoms: _51  and  _52
REMARK   24  A    between atoms: _51  and  _54
REMARK   25  A    between atoms: _54  and  _55
REMARK   26  A    between atoms: _58  and  _60
REMARK   27  A    between atoms: _60  and  _61
REMARK   28  A    between atoms: _60  and  _63
REMARK   29  A    between atoms: _63  and  _64
REMARK   30  A    between atoms: _67  and  _69
REMARK   31  A    between atoms: _69  and  _70
REMARK   32  A    between atoms: _73  and  _75
REMARK   33  A    between atoms: _75  and  _76
REMARK   34  A    between atoms: _75  and  _78
REMARK   35  A    between atoms: _78  and  _79
REMARK   36  A    between atoms: _83  and  _84
REMARK   37  A    between atoms: _89  and  _91
REMARK   38  A    between atoms: _91  and  _92
REMARK   39  A    between atoms: _91  and  _94
REMARK   40  A    between atoms: _94  and  _95
REMARK   41  A    between atoms: _97  and  _99
REMARK   42  A    between atoms: _99  and  _100
REMARK   43  A    between atoms: _99  and  _102
REMARK   44  A    between atoms: _102  and  _103
REMARK   45  A    between atoms: _108  and  _109
REMARK   46  A    between atoms: _111  and  _113
REMARK   47  A    between atoms: _113  and  _114
REMARK   48  A    between atoms: _113  and  _116
REMARK   49  A    between atoms: _116  and  _117
REMARK   50  A    between atoms: _119  and  _121
REMARK   51  A    between atoms: _121  and  _122
REMARK   52  A    between atoms: _121  and  _124
REMARK   53  A    between atoms: _124  and  _125
REMARK   54  A    between atoms: _127  and  _129
REMARK   55  A    between atoms: _129  and  _130
REMARK   56  A    between atoms: _129  and  _132
REMARK   57  A    between atoms: _132  and  _133
REMARK   58  A    between atoms: _138  and  _139
REMARK   59  A    between atoms: _141  and  _143
REMARK   60  A    between atoms: _143  and  _144
REMARK   61  A    between atoms: _143  and  _146
REMARK   62  A    between atoms: _146  and  _147
REMARK   63  A    between atoms: _152  and  _153
REMARK   64  A    between atoms: _155  and  _157
REMARK   65  A    between atoms: _157  and  _158
REMARK   66  A    between atoms: _157  and  _160
REMARK   67  A    between atoms: _160  and  _161
REMARK   68  A    between atoms: _161  and  _219
REMARK   69  A    between atoms: _162  and  _164
REMARK   70  A    between atoms: _164  and  _165
REMARK   71  A    between atoms: _167  and  _169
REMARK   72  A    between atoms: _169  and  _170
REMARK   73  A    between atoms: _169  and  _172
REMARK   74  A    between atoms: _172  and  _173
REMARK   75  A    between atoms: _183  and  _185
REMARK   76  A    between atoms: _185  and  _186
REMARK   77  A    between atoms: _188  and  _190
REMARK   78  A    between atoms: _190  and  _191
REMARK   79  A    between atoms: _190  and  _193
REMARK   80  A    between atoms: _193  and  _194
REMARK   81  A    between atoms: _197  and  _199
REMARK   82  A    between atoms: _199  and  _200
REMARK   83  A    between atoms: _199  and  _202
REMARK   84  A    between atoms: _202  and  _203
REMARK   85  A    between atoms: _206  and  _208
REMARK   86  A    between atoms: _208  and  _209
REMARK   87  A    between atoms: _208  and  _211
REMARK   88  A    between atoms: _213  and  _215
REMARK   89  A    between atoms: _215  and  _216
REMARK   90  A    between atoms: _215  and  _218
REMARK   91  A    between atoms: _218  and  _219
REMARK   92  A    between atoms: _220  and  _222
REMARK   93  A    between atoms: _222  and  _223
REMARK   94  A    between atoms: _222  and  _225
REMARK   95  A    between atoms: _225  and  _226
REMARK   96  A    between atoms: _232  and  _234
REMARK   97  A    between atoms: _234  and  _235
REMARK   98  A    between atoms: _234  and  _237
REMARK   99  A    between atoms: _237  and  _238
REMARK  100  A    between atoms: _243  and  _245
REMARK  101  A    between atoms: _245  and  _246
REMARK  102  A    between atoms: _245  and  _248
REMARK  103  A    between atoms: _248  and  _249
REMARK  104  A    between atoms: _252  and  _254
REMARK  105  A    between atoms: _254  and  _255
REMARK  106  A    between atoms: _254  and  _257
REMARK  107  A    between atoms: _257  and  _258
REMARK  108  A    between atoms: _263  and  _264
REMARK  109  A    between atoms: _266  and  _268
REMARK  110  A    between atoms: _268  and  _269
REMARK  111  A    between atoms: _268  and  _271
REMARK  112  A    between atoms: _271  and  _272
REMARK  113  A    between atoms: _272  and  _273
REMARK  114  A    between atoms: _273  and  _274
REMARK  115  A    between atoms: _274  and  _275
REMARK  116  A    between atoms: _279  and  _281
REMARK  117  A    between atoms: _281  and  _282
REMARK  118  A    between atoms: _285  and  _287
REMARK  119  A    between atoms: _287  and  _288
REMARK  120  A    between atoms: _291  and  _293
REMARK  121  A    between atoms: _293  and  _294
REMARK  122  A    between atoms: _293  and  _296
REMARK  123  A    between atoms: _296  and  _297
REMARK                            x       y       z     vdW  Elec       q    Type
REMARK                         _______ _______ _______ _____ _____    ______ ____
ROOT
ATOM      1  O   HOH     1      43.621  30.743   5.536  0.00  0.00    +0.000 OA
ENDROOT
TORSDOF 0
REMARK  Name = ../refined-set-2016/1sv3/1sv3_pocket.pdb
REMARK  123 active torsions:
REMARK  status: ('A' for Active; 'I' for Inactive)
REMARK    1  A    between atoms: _1  and  _3
REMARK    2  A    between atoms: _3  and  _4
REMARK    3  A    between atoms: _3  and  _6
REMARK    4  A    between atoms: _6  and  _7
REMARK    5  A    between atoms: _10  and  _12
REMARK    6  A    between atoms: _12  and  _13
REMARK    7  A    between atoms: _12  and  _15
REMARK    8  A    between atoms: _15  and  _16
REMARK    9  A    between atoms: _19  and  _21
REMARK   10  A    between atoms: _21  and  _22
REMARK   11  A    between atoms: _21  and  _24
REMARK   12  A    between atoms: _24  and  _25
REMARK   13  A    between atoms: _31  and  _33
REMARK   14  A    between atoms: _33  and  _34
REMARK   15  A    between atoms: _36  and  _38
REMARK   16  A    between atoms: _38  and  _39
REMARK   17  A    between atoms: _38  and  _41
REMARK   18  A    between atoms: _41  and  _42
REMARK   19  A    between atoms: _42  and  _43
REMARK   20  A    between atoms: _43  and  _44
REMARK   21  A    between atoms: _44  and  _45
REMARK   22  A    between atoms: _49  and  _51
REMARK   23  A    between atoms: _51  and  _52
REMARK   24  A    between atoms: _51  and  _54
REMARK   25  A    between atoms: _54  and  _55
REMARK   26  A    between atoms: _58  and  _60
REMARK   27  A    between atoms: _60  and  _61
REMARK   28  A    between atoms: _60  and  _63
REMARK   29  A    between atoms: _63  and  _64
REMARK   30  A    between atoms: _67  and  _69
REMARK   31  A    between atoms: _69  and  _70
REMARK   32  A    between atoms: _73  and  _75
REMARK   33  A    between atoms: _75  and  _76
REMARK   34  A    between atoms: _75  and  _78
REMARK   35  A    between atoms: _78  and  _79
REMARK   36  A    between atoms: _83  and  _84
REMARK   37  A    between atoms: _89  and  _91
REMARK   38  A    between atoms: _91  and  _92
REMARK   39  A    between atoms: _91  and  _94
REMARK   40  A    between atoms: _94  and  _95
REMARK   41  A    between atoms: _97  and  _99
REMARK   42  A    between atoms: _99  and  _100
REMARK   43  A    between atoms: _99  and  _102
REMARK   44  A    between atoms: _102  and  _103
REMARK   45  A    between atoms: _108  and  _109
REMARK   46  A    between atoms: _111  and  _113
REMARK   47  A    between atoms: _113  and  _114
REMARK   48  A    between atoms: _113  and  _116
REMARK   49  A    between atoms: _116  and  _117
REMARK   50  A    between atoms: _119  and  _121
REMARK   51  A    between atoms: _121  and  _122
REMARK   52  A    between atoms: _121  and  _124
REMARK   53  A    between atoms: _124  and  _125
REMARK   54  A    between atoms: _127  and  _129
REMARK   55  A    between atoms: _129  and  _130
REMARK   56  A    between atoms: _129  and  _132
REMARK   57  A    between atoms: _132  and  _133
REMARK   58  A    between atoms: _138  and  _139
REMARK   59  A    between atoms: _141  and  _143
REMARK   60  A    between atoms: _143  and  _144
REMARK   61  A    between atoms: _143  and  _146
REMARK   62  A    between atoms: _146  and  _147
REMARK   63  A    between atoms: _152  and  _153
REMARK   64  A    between atoms: _155  and  _157
REMARK   65  A    between atoms: _157  and  _158
REMARK   66  A    between atoms: _157  and  _160
REMARK   67  A    between atoms: _160  and  _161
REMARK   68  A    between atoms: _161  and  _219
REMARK   69  A    between atoms: _162  and  _164
REMARK   70  A    between atoms: _164  and  _165
REMARK   71  A    between atoms: _167  and  _169
REMARK   72  A    between atoms: _169  and  _170
REMARK   73  A    between atoms: _169  and  _172
REMARK   74  A    between atoms: _172  and  _173
REMARK   75  A    between atoms: _183  and  _185
REMARK   76  A    between atoms: _185  and  _186
REMARK   77  A    between atoms: _188  and  _190
REMARK   78  A    between atoms: _190  and  _191
REMARK   79  A    between atoms: _190  and  _193
REMARK   80  A    between atoms: _193  and  _194
REMARK   81  A    between atoms: _197  and  _199
REMARK   82  A    between atoms: _199  and  _200
REMARK   83  A    between atoms: _199  and  _202
REMARK   84  A    between atoms: _202  and  _203
REMARK   85  A    between atoms: _206  and  _208
REMARK   86  A    between atoms: _208  and  _209
REMARK   87  A    between atoms: _208  and  _211
REMARK   88  A    between atoms: _213  and  _215
REMARK   89  A    between atoms: _215  and  _216
REMARK   90  A    between atoms: _215  and  _218
REMARK   91  A    between atoms: _218  and  _219
REMARK   92  A    between atoms: _220  and  _222
REMARK   93  A    between atoms: _222  and  _223
REMARK   94  A    between atoms: _222  and  _225
REMARK   95  A    between atoms: _225  and  _226
REMARK   96  A    between atoms: _232  and  _234
REMARK   97  A    between atoms: _234  and  _235
REMARK   98  A    between atoms: _234  and  _237
REMARK   99  A    between atoms: _237  and  _238
REMARK  100  A    between atoms: _243  and  _245
REMARK  101  A    between atoms: _245  and  _246
REMARK  102  A    between atoms: _245  and  _248
REMARK  103  A    between atoms: _248  and  _249
REMARK  104  A    between atoms: _252  and  _254
REMARK  105  A    between atoms: _254  and  _255
REMARK  106  A    between atoms: _254  and  _257
REMARK  107  A    between atoms: _257  and  _258
REMARK  108  A    between atoms: _263  and  _264
REMARK  109  A    between atoms: _266  and  _268
REMARK  110  A    between atoms: _268  and  _269
REMARK  111  A    between atoms: _268  and  _271
REMARK  112  A    between atoms: _271  and  _272
REMARK  113  A    between atoms: _272  and  _273
REMARK  114  A    between atoms: _273  and  _274
REMARK  115  A    between atoms: _274  and  _275
REMARK  116  A    between atoms: _279  and  _281
REMARK  117  A    between atoms: _281  and  _282
REMARK  118  A    between atoms: _285  and  _287
REMARK  119  A    between atoms: _287  and  _288
REMARK  120  A    between atoms: _291  and  _293
REMARK  121  A    between atoms: _293  and  _294
REMARK  122  A    between atoms: _293  and  _296
REMARK  123  A    between atoms: _296  and  _297
REMARK                            x       y       z     vdW  Elec       q    Type
REMARK                         _______ _______ _______ _____ _____    ______ ____
ROOT
ATOM      1  O   HOH     1      46.094  37.670   5.066  0.00  0.00    +0.000 OA
ENDROOT
TORSDOF 0
REMARK  Name = ../refined-set-2016/1sv3/1sv3_pocket.pdb
REMARK  123 active torsions:
REMARK  status: ('A' for Active; 'I' for Inactive)
REMARK    1  A    between atoms: _1  and  _3
REMARK    2  A    between atoms: _3  and  _4
REMARK    3  A    between atoms: _3  and  _6
REMARK    4  A    between atoms: _6  and  _7
REMARK    5  A    between atoms: _10  and  _12
REMARK    6  A    between atoms: _12  and  _13
REMARK    7  A    between atoms: _12  and  _15
REMARK    8  A    between atoms: _15  and  _16
REMARK    9  A    between atoms: _19  and  _21
REMARK   10  A    between atoms: _21  and  _22
REMARK   11  A    between atoms: _21  and  _24
REMARK   12  A    between atoms: _24  and  _25
REMARK   13  A    between atoms: _31  and  _33
REMARK   14  A    between atoms: _33  and  _34
REMARK   15  A    between atoms: _36  and  _38
REMARK   16  A    between atoms: _38  and  _39
REMARK   17  A    between atoms: _38  and  _41
REMARK   18  A    between atoms: _41  and  _42
REMARK   19  A    between atoms: _42  and  _43
REMARK   20  A    between atoms: _43  and  _44
REMARK   21  A    between atoms: _44  and  _45
REMARK   22  A    between atoms: _49  and  _51
REMARK   23  A    between atoms: _51  and  _52
REMARK   24  A    between atoms: _51  and  _54
REMARK   25  A    between atoms: _54  and  _55
REMARK   26  A    between atoms: _58  and  _60
REMARK   27  A    between atoms: _60  and  _61
REMARK   28  A    between atoms: _60  and  _63
REMARK   29  A    between atoms: _63  and  _64
REMARK   30  A    between atoms: _67  and  _69
REMARK   31  A    between atoms: _69  and  _70
REMARK   32  A    between atoms: _73  and  _75
REMARK   33  A    between atoms: _75  and  _76
REMARK   34  A    between atoms: _75  and  _78
REMARK   35  A    between atoms: _78  and  _79
REMARK   36  A    between atoms: _83  and  _84
REMARK   37  A    between atoms: _89  and  _91
REMARK   38  A    between atoms: _91  and  _92
REMARK   39  A    between atoms: _91  and  _94
REMARK   40  A    between atoms: _94  and  _95
REMARK   41  A    between atoms: _97  and  _99
REMARK   42  A    between atoms: _99  and  _100
REMARK   43  A    between atoms: _99  and  _102
REMARK   44  A    between atoms: _102  and  _103
REMARK   45  A    between atoms: _108  and  _109
REMARK   46  A    between atoms: _111  and  _113
REMARK   47  A    between atoms: _113  and  _114
REMARK   48  A    between atoms: _113  and  _116
REMARK   49  A    between atoms: _116  and  _117
REMARK   50  A    between atoms: _119  and  _121
REMARK   51  A    between atoms: _121  and  _122
REMARK   52  A    between atoms: _121  and  _124
REMARK   53  A    between atoms: _124  and  _125
REMARK   54  A    between atoms: _127  and  _129
REMARK   55  A    between atoms: _129  and  _130
REMARK   56  A    between atoms: _129  and  _132
REMARK   57  A    between atoms: _132  and  _133
REMARK   58  A    between atoms: _138  and  _139
REMARK   59  A    between atoms: _141  and  _143
REMARK   60  A    between atoms: _143  and  _144
REMARK   61  A    between atoms: _143  and  _146
REMARK   62  A    between atoms: _146  and  _147
REMARK   63  A    between atoms: _152  and  _153
REMARK   64  A    between atoms: _155  and  _157
REMARK   65  A    between atoms: _157  and  _158
REMARK   66  A    between atoms: _157  and  _160
REMARK   67  A    between atoms: _160  and  _161
REMARK   68  A    between atoms: _161  and  _219
REMARK   69  A    between atoms: _162  and  _164
REMARK   70  A    between atoms: _164  and  _165
REMARK   71  A    between atoms: _167  and  _169
REMARK   72  A    between atoms: _169  and  _170
REMARK   73  A    between atoms: _169  and  _172
REMARK   74  A    between atoms: _172  and  _173
REMARK   75  A    between atoms: _183  and  _185
REMARK   76  A    between atoms: _185  and  _186
REMARK   77  A    between atoms: _188  and  _190
REMARK   78  A    between atoms: _190  and  _191
REMARK   79  A    between atoms: _190  and  _193
REMARK   80  A    between atoms: _193  and  _194
REMARK   81  A    between atoms: _197  and  _199
REMARK   82  A    between atoms: _199  and  _200
REMARK   83  A    between atoms: _199  and  _202
REMARK   84  A    between atoms: _202  and  _203
REMARK   85  A    between atoms: _206  and  _208
REMARK   86  A    between atoms: _208  and  _209
REMARK   87  A    between atoms: _208  and  _211
REMARK   88  A    between atoms: _213  and  _215
REMARK   89  A    between atoms: _215  and  _216
REMARK   90  A    between atoms: _215  and  _218
REMARK   91  A    between atoms: _218  and  _219
REMARK   92  A    between atoms: _220  and  _222
REMARK   93  A    between atoms: _222  and  _223
REMARK   94  A    between atoms: _222  and  _225
REMARK   95  A    between atoms: _225  and  _226
REMARK   96  A    between atoms: _232  and  _234
REMARK   97  A    between atoms: _234  and  _235
REMARK   98  A    between atoms: _234  and  _237
REMARK   99  A    between atoms: _237  and  _238
REMARK  100  A    between atoms: _243  and  _245
REMARK  101  A    between atoms: _245  and  _246
REMARK  102  A    between atoms: _245  and  _248
REMARK  103  A    between atoms: _248  and  _249
REMARK  104  A    between atoms: _252  and  _254
REMARK  105  A    between atoms: _254  and  _255
REMARK  106  A    between atoms: _254  and  _257
REMARK  107  A    between atoms: _257  and  _258
REMARK  108  A    between atoms: _263  and  _264
REMARK  109  A    between atoms: _266  and  _268
REMARK  110  A    between atoms: _268  and  _269
REMARK  111  A    between atoms: _268  and  _271
REMARK  112  A    between atoms: _271  and  _272
REMARK  113  A    between atoms: _272  and  _273
REMARK  114  A    between atoms: _273  and  _274
REMARK  115  A    between atoms: _274  and  _275
REMARK  116  A    between atoms: _279  and  _281
REMARK  117  A    between atoms: _281  and  _282
REMARK  118  A    between atoms: _285  and  _287
REMARK  119  A    between atoms: _287  and  _288
REMARK  120  A    between atoms: _291  and  _293
REMARK  121  A    between atoms: _293  and  _294
REMARK  122  A    between atoms: _293  and  _296
REMARK  123  A    between atoms: _296  and  _297
REMARK                            x       y       z     vdW  Elec       q    Type
REMARK                         _______ _______ _______ _____ _____    ______ ____
ROOT
ATOM      1  O   HOH     1      39.876  30.338   2.766  0.00  0.00    +0.000 OA
ENDROOT
TORSDOF 0
REMARK  Name = ../refined-set-2016/1sv3/1sv3_pocket.pdb
REMARK  123 active torsions:
REMARK  status: ('A' for Active; 'I' for Inactive)
REMARK    1  A    between atoms: _1  and  _3
REMARK    2  A    between atoms: _3  and  _4
REMARK    3  A    between atoms: _3  and  _6
REMARK    4  A    between atoms: _6  and  _7
REMARK    5  A    between atoms: _10  and  _12
REMARK    6  A    between atoms: _12  and  _13
REMARK    7  A    between atoms: _12  and  _15
REMARK    8  A    between atoms: _15  and  _16
REMARK    9  A    between atoms: _19  and  _21
REMARK   10  A    between atoms: _21  and  _22
REMARK   11  A    between atoms: _21  and  _24
REMARK   12  A    between atoms: _24  and  _25
REMARK   13  A    between atoms: _31  and  _33
REMARK   14  A    between atoms: _33  and  _34
REMARK   15  A    between atoms: _36  and  _38
REMARK   16  A    between atoms: _38  and  _39
REMARK   17  A    between atoms: _38  and  _41
REMARK   18  A    between atoms: _41  and  _42
REMARK   19  A    between atoms: _42  and  _43
REMARK   20  A    between atoms: _43  and  _44
REMARK   21  A    between atoms: _44  and  _45
REMARK   22  A    between atoms: _49  and  _51
REMARK   23  A    between atoms: _51  and  _52
REMARK   24  A    between atoms: _51  and  _54
REMARK   25  A    between atoms: _54  and  _55
REMARK   26  A    between atoms: _58  and  _60
REMARK   27  A    between atoms: _60  and  _61
REMARK   28  A    between atoms: _60  and  _63
REMARK   29  A    between atoms: _63  and  _64
REMARK   30  A    between atoms: _67  and  _69
REMARK   31  A    between atoms: _69  and  _70
REMARK   32  A    between atoms: _73  and  _75
REMARK   33  A    between atoms: _75  and  _76
REMARK   34  A    between atoms: _75  and  _78
REMARK   35  A    between atoms: _78  and  _79
REMARK   36  A    between atoms: _83  and  _84
REMARK   37  A    between atoms: _89  and  _91
REMARK   38  A    between atoms: _91  and  _92
REMARK   39  A    between atoms: _91  and  _94
REMARK   40  A    between atoms: _94  and  _95
REMARK   41  A    between atoms: _97  and  _99
REMARK   42  A    between atoms: _99  and  _100
REMARK   43  A    between atoms: _99  and  _102
REMARK   44  A    between atoms: _102  and  _103
REMARK   45  A    between atoms: _108  and  _109
REMARK   46  A    between atoms: _111  and  _113
REMARK   47  A    between atoms: _113  and  _114
REMARK   48  A    between atoms: _113  and  _116
REMARK   49  A    between atoms: _116  and  _117
REMARK   50  A    between atoms: _119  and  _121
REMARK   51  A    between atoms: _121  and  _122
REMARK   52  A    between atoms: _121  and  _124
REMARK   53  A    between atoms: _124  and  _125
REMARK   54  A    between atoms: _127  and  _129
REMARK   55  A    between atoms: _129  and  _130
REMARK   56  A    between atoms: _129  and  _132
REMARK   57  A    between atoms: _132  and  _133
REMARK   58  A    between atoms: _138  and  _139
REMARK   59  A    between atoms: _141  and  _143
REMARK   60  A    between atoms: _143  and  _144
REMARK   61  A    between atoms: _143  and  _146
REMARK   62  A    between atoms: _146  and  _147
REMARK   63  A    between atoms: _152  and  _153
REMARK   64  A    between atoms: _155  and  _157
REMARK   65  A    between atoms: _157  and  _158
REMARK   66  A    between atoms: _157  and  _160
REMARK   67  A    between atoms: _160  and  _161
REMARK   68  A    between atoms: _161  and  _219
REMARK   69  A    between atoms: _162  and  _164
REMARK   70  A    between atoms: _164  and  _165
REMARK   71  A    between atoms: _167  and  _169
REMARK   72  A    between atoms: _169  and  _170
REMARK   73  A    between atoms: _169  and  _172
REMARK   74  A    between atoms: _172  and  _173
REMARK   75  A    between atoms: _183  and  _185
REMARK   76  A    between atoms: _185  and  _186
REMARK   77  A    between atoms: _188  and  _190
REMARK   78  A    between atoms: _190  and  _191
REMARK   79  A    between atoms: _190  and  _193
REMARK   80  A    between atoms: _193  and  _194
REMARK   81  A    between atoms: _197  and  _199
REMARK   82  A    between atoms: _199  and  _200
REMARK   83  A    between atoms: _199  and  _202
REMARK   84  A    between atoms: _202  and  _203
REMARK   85  A    between atoms: _206  and  _208
REMARK   86  A    between atoms: _208  and  _209
REMARK   87  A    between atoms: _208  and  _211
REMARK   88  A    between atoms: _213  and  _215
REMARK   89  A    between atoms: _215  and  _216
REMARK   90  A    between atoms: _215  and  _218
REMARK   91  A    between atoms: _218  and  _219
REMARK   92  A    between atoms: _220  and  _222
REMARK   93  A    between atoms: _222  and  _223
REMARK   94  A    between atoms: _222  and  _225
REMARK   95  A    between atoms: _225  and  _226
REMARK   96  A    between atoms: _232  and  _234
REMARK   97  A    between atoms: _234  and  _235
REMARK   98  A    between atoms: _234  and  _237
REMARK   99  A    between atoms: _237  and  _238
REMARK  100  A    between atoms: _243  and  _245
REMARK  101  A    between atoms: _245  and  _246
REMARK  102  A    between atoms: _245  and  _248
REMARK  103  A    between atoms: _248  and  _249
REMARK  104  A    between atoms: _252  and  _254
REMARK  105  A    between atoms: _254  and  _255
REMARK  106  A    between atoms: _254  and  _257
REMARK  107  A    between atoms: _257  and  _258
REMARK  108  A    between atoms: _263  and  _264
REMARK  109  A    between atoms: _266  and  _268
REMARK  110  A    between atoms: _268  and  _269
REMARK  111  A    between atoms: _268  and  _271
REMARK  112  A    between atoms: _271  and  _272
REMARK  113  A    between atoms: _272  and  _273
REMARK  114  A    between atoms: _273  and  _274
REMARK  115  A    between atoms: _274  and  _275
REMARK  116  A    between atoms: _279  and  _281
REMARK  117  A    between atoms: _281  and  _282
REMARK  118  A    between atoms: _285  and  _287
REMARK  119  A    between atoms: _287  and  _288
REMARK  120  A    between atoms: _291  and  _293
REMARK  121  A    between atoms: _293  and  _294
REMARK  122  A    between atoms: _293  and  _296
REMARK  123  A    between atoms: _296  and  _297
REMARK                            x       y       z     vdW  Elec       q    Type
REMARK                         _______ _______ _______ _____ _____    ______ ____
ROOT
ATOM      1  O   HOH     1      42.426  30.911   8.051  0.00  0.00    +0.000 OA
ENDROOT
TORSDOF 0
REMARK  Name = ../refined-set-2016/1sv3/1sv3_pocket.pdb
REMARK  123 active torsions:
REMARK  status: ('A' for Active; 'I' for Inactive)
REMARK    1  A    between atoms: _1  and  _3
REMARK    2  A    between atoms: _3  and  _4
REMARK    3  A    between atoms: _3  and  _6
REMARK    4  A    between atoms: _6  and  _7
REMARK    5  A    between atoms: _10  and  _12
REMARK    6  A    between atoms: _12  and  _13
REMARK    7  A    between atoms: _12  and  _15
REMARK    8  A    between atoms: _15  and  _16
REMARK    9  A    between atoms: _19  and  _21
REMARK   10  A    between atoms: _21  and  _22
REMARK   11  A    between atoms: _21  and  _24
REMARK   12  A    between atoms: _24  and  _25
REMARK   13  A    between atoms: _31  and  _33
REMARK   14  A    between atoms: _33  and  _34
REMARK   15  A    between atoms: _36  and  _38
REMARK   16  A    between atoms: _38  and  _39
REMARK   17  A    between atoms: _38  and  _41
REMARK   18  A    between atoms: _41  and  _42
REMARK   19  A    between atoms: _42  and  _43
REMARK   20  A    between atoms: _43  and  _44
REMARK   21  A    between atoms: _44  and  _45
REMARK   22  A    between atoms: _49  and  _51
REMARK   23  A    between atoms: _51  and  _52
REMARK   24  A    between atoms: _51  and  _54
REMARK   25  A    between atoms: _54  and  _55
REMARK   26  A    between atoms: _58  and  _60
REMARK   27  A    between atoms: _60  and  _61
REMARK   28  A    between atoms: _60  and  _63
REMARK   29  A    between atoms: _63  and  _64
REMARK   30  A    between atoms: _67  and  _69
REMARK   31  A    between atoms: _69  and  _70
REMARK   32  A    between atoms: _73  and  _75
REMARK   33  A    between atoms: _75  and  _76
REMARK   34  A    between atoms: _75  and  _78
REMARK   35  A    between atoms: _78  and  _79
REMARK   36  A    between atoms: _83  and  _84
REMARK   37  A    between atoms: _89  and  _91
REMARK   38  A    between atoms: _91  and  _92
REMARK   39  A    between atoms: _91  and  _94
REMARK   40  A    between atoms: _94  and  _95
REMARK   41  A    between atoms: _97  and  _99
REMARK   42  A    between atoms: _99  and  _100
REMARK   43  A    between atoms: _99  and  _102
REMARK   44  A    between atoms: _102  and  _103
REMARK   45  A    between atoms: _108  and  _109
REMARK   46  A    between atoms: _111  and  _113
REMARK   47  A    between atoms: _113  and  _114
REMARK   48  A    between atoms: _113  and  _116
REMARK   49  A    between atoms: _116  and  _117
REMARK   50  A    between atoms: _119  and  _121
REMARK   51  A    between atoms: _121  and  _122
REMARK   52  A    between atoms: _121  and  _124
REMARK   53  A    between atoms: _124  and  _125
REMARK   54  A    between atoms: _127  and  _129
REMARK   55  A    between atoms: _129  and  _130
REMARK   56  A    between atoms: _129  and  _132
REMARK   57  A    between atoms: _132  and  _133
REMARK   58  A    between atoms: _138  and  _139
REMARK   59  A    between atoms: _141  and  _143
REMARK   60  A    between atoms: _143  and  _144
REMARK   61  A    between atoms: _143  and  _146
REMARK   62  A    between atoms: _146  and  _147
REMARK   63  A    between atoms: _152  and  _153
REMARK   64  A    between atoms: _155  and  _157
REMARK   65  A    between atoms: _157  and  _158
REMARK   66  A    between atoms: _157  and  _160
REMARK   67  A    between atoms: _160  and  _161
REMARK   68  A    between atoms: _161  and  _219
REMARK   69  A    between atoms: _162  and  _164
REMARK   70  A    between atoms: _164  and  _165
REMARK   71  A    between atoms: _167  and  _169
REMARK   72  A    between atoms: _169  and  _170
REMARK   73  A    between atoms: _169  and  _172
REMARK   74  A    between atoms: _172  and  _173
REMARK   75  A    between atoms: _183  and  _185
REMARK   76  A    between atoms: _185  and  _186
REMARK   77  A    between atoms: _188  and  _190
REMARK   78  A    between atoms: _190  and  _191
REMARK   79  A    between atoms: _190  and  _193
REMARK   80  A    between atoms: _193  and  _194
REMARK   81  A    between atoms: _197  and  _199
REMARK   82  A    between atoms: _199  and  _200
REMARK   83  A    between atoms: _199  and  _202
REMARK   84  A    between atoms: _202  and  _203
REMARK   85  A    between atoms: _206  and  _208
REMARK   86  A    between atoms: _208  and  _209
REMARK   87  A    between atoms: _208  and  _211
REMARK   88  A    between atoms: _213  and  _215
REMARK   89  A    between atoms: _215  and  _216
REMARK   90  A    between atoms: _215  and  _218
REMARK   91  A    between atoms: _218  and  _219
REMARK   92  A    between atoms: _220  and  _222
REMARK   93  A    between atoms: _222  and  _223
REMARK   94  A    between atoms: _222  and  _225
REMARK   95  A    between atoms: _225  and  _226
REMARK   96  A    between atoms: _232  and  _234
REMARK   97  A    between atoms: _234  and  _235
REMARK   98  A    between atoms: _234  and  _237
REMARK   99  A    between atoms: _237  and  _238
REMARK  100  A    between atoms: _243  and  _245
REMARK  101  A    between atoms: _245  and  _246
REMARK  102  A    between atoms: _245  and  _248
REMARK  103  A    between atoms: _248  and  _249
REMARK  104  A    between atoms: _252  and  _254
REMARK  105  A    between atoms: _254  and  _255
REMARK  106  A    between atoms: _254  and  _257
REMARK  107  A    between atoms: _257  and  _258
REMARK  108  A    between atoms: _263  and  _264
REMARK  109  A    between atoms: _266  and  _268
REMARK  110  A    between atoms: _268  and  _269
REMARK  111  A    between atoms: _268  and  _271
REMARK  112  A    between atoms: _271  and  _272
REMARK  113  A    between atoms: _272  and  _273
REMARK  114  A    between atoms: _273  and  _274
REMARK  115  A    between atoms: _274  and  _275
REMARK  116  A    between atoms: _279  and  _281
REMARK  117  A    between atoms: _281  and  _282
REMARK  118  A    between atoms: _285  and  _287
REMARK  119  A    between atoms: _287  and  _288
REMARK  120  A    between atoms: _291  and  _293
REMARK  121  A    between atoms: _293  and  _294
REMARK  122  A    between atoms: _293  and  _296
REMARK  123  A    between atoms: _296  and  _297
REMARK                            x       y       z     vdW  Elec       q    Type
REMARK                         _______ _______ _______ _____ _____    ______ ____
ROOT
ATOM      1  O   HOH     1      47.801  35.450  13.576  0.00  0.00    +0.000 OA
ENDROOT
TORSDOF 0
REMARK  Name = ../refined-set-2016/1sv3/1sv3_pocket.pdb
REMARK  123 active torsions:
REMARK  status: ('A' for Active; 'I' for Inactive)
REMARK    1  A    between atoms: _1  and  _3
REMARK    2  A    between atoms: _3  and  _4
REMARK    3  A    between atoms: _3  and  _6
REMARK    4  A    between atoms: _6  and  _7
REMARK    5  A    between atoms: _10  and  _12
REMARK    6  A    between atoms: _12  and  _13
REMARK    7  A    between atoms: _12  and  _15
REMARK    8  A    between atoms: _15  and  _16
REMARK    9  A    between atoms: _19  and  _21
REMARK   10  A    between atoms: _21  and  _22
REMARK   11  A    between atoms: _21  and  _24
REMARK   12  A    between atoms: _24  and  _25
REMARK   13  A    between atoms: _31  and  _33
REMARK   14  A    between atoms: _33  and  _34
REMARK   15  A    between atoms: _36  and  _38
REMARK   16  A    between atoms: _38  and  _39
REMARK   17  A    between atoms: _38  and  _41
REMARK   18  A    between atoms: _41  and  _42
REMARK   19  A    between atoms: _42  and  _43
REMARK   20  A    between atoms: _43  and  _44
REMARK   21  A    between atoms: _44  and  _45
REMARK   22  A    between atoms: _49  and  _51
REMARK   23  A    between atoms: _51  and  _52
REMARK   24  A    between atoms: _51  and  _54
REMARK   25  A    between atoms: _54  and  _55
REMARK   26  A    between atoms: _58  and  _60
REMARK   27  A    between atoms: _60  and  _61
REMARK   28  A    between atoms: _60  and  _63
REMARK   29  A    between atoms: _63  and  _64
REMARK   30  A    between atoms: _67  and  _69
REMARK   31  A    between atoms: _69  and  _70
REMARK   32  A    between atoms: _73  and  _75
REMARK   33  A    between atoms: _75  and  _76
REMARK   34  A    between atoms: _75  and  _78
REMARK   35  A    between atoms: _78  and  _79
REMARK   36  A    between atoms: _83  and  _84
REMARK   37  A    between atoms: _89  and  _91
REMARK   38  A    between atoms: _91  and  _92
REMARK   39  A    between atoms: _91  and  _94
REMARK   40  A    between atoms: _94  and  _95
REMARK   41  A    between atoms: _97  and  _99
REMARK   42  A    between atoms: _99  and  _100
REMARK   43  A    between atoms: _99  and  _102
REMARK   44  A    between atoms: _102  and  _103
REMARK   45  A    between atoms: _108  and  _109
REMARK   46  A    between atoms: _111  and  _113
REMARK   47  A    between atoms: _113  and  _114
REMARK   48  A    between atoms: _113  and  _116
REMARK   49  A    between atoms: _116  and  _117
REMARK   50  A    between atoms: _119  and  _121
REMARK   51  A    between atoms: _121  and  _122
REMARK   52  A    between atoms: _121  and  _124
REMARK   53  A    between atoms: _124  and  _125
REMARK   54  A    between atoms: _127  and  _129
REMARK   55  A    between atoms: _129  and  _130
REMARK   56  A    between atoms: _129  and  _132
REMARK   57  A    between atoms: _132  and  _133
REMARK   58  A    between atoms: _138  and  _139
REMARK   59  A    between atoms: _141  and  _143
REMARK   60  A    between atoms: _143  and  _144
REMARK   61  A    between atoms: _143  and  _146
REMARK   62  A    between atoms: _146  and  _147
REMARK   63  A    between atoms: _152  and  _153
REMARK   64  A    between atoms: _155  and  _157
REMARK   65  A    between atoms: _157  and  _158
REMARK   66  A    between atoms: _157  and  _160
REMARK   67  A    between atoms: _160  and  _161
REMARK   68  A    between atoms: _161  and  _219
REMARK   69  A    between atoms: _162  and  _164
REMARK   70  A    between atoms: _164  and  _165
REMARK   71  A    between atoms: _167  and  _169
REMARK   72  A    between atoms: _169  and  _170
REMARK   73  A    between atoms: _169  and  _172
REMARK   74  A    between atoms: _172  and  _173
REMARK   75  A    between atoms: _183  and  _185
REMARK   76  A    between atoms: _185  and  _186
REMARK   77  A    between atoms: _188  and  _190
REMARK   78  A    between atoms: _190  and  _191
REMARK   79  A    between atoms: _190  and  _193
REMARK   80  A    between atoms: _193  and  _194
REMARK   81  A    between atoms: _197  and  _199
REMARK   82  A    between atoms: _199  and  _200
REMARK   83  A    between atoms: _199  and  _202
REMARK   84  A    between atoms: _202  and  _203
REMARK   85  A    between atoms: _206  and  _208
REMARK   86  A    between atoms: _208  and  _209
REMARK   87  A    between atoms: _208  and  _211
REMARK   88  A    between atoms: _213  and  _215
REMARK   89  A    between atoms: _215  and  _216
REMARK   90  A    between atoms: _215  and  _218
REMARK   91  A    between atoms: _218  and  _219
REMARK   92  A    between atoms: _220  and  _222
REMARK   93  A    between atoms: _222  and  _223
REMARK   94  A    between atoms: _222  and  _225
REMARK   95  A    between atoms: _225  and  _226
REMARK   96  A    between atoms: _232  and  _234
REMARK   97  A    between atoms: _234  and  _235
REMARK   98  A    between atoms: _234  and  _237
REMARK   99  A    between atoms: _237  and  _238
REMARK  100  A    between atoms: _243  and  _245
REMARK  101  A    between atoms: _245  and  _246
REMARK  102  A    between atoms: _245  and  _248
REMARK  103  A    between atoms: _248  and  _249
REMARK  104  A    between atoms: _252  and  _254
REMARK  105  A    between atoms: _254  and  _255
REMARK  106  A    between atoms: _254  and  _257
REMARK  107  A    between atoms: _257  and  _258
REMARK  108  A    between atoms: _263  and  _264
REMARK  109  A    between atoms: _266  and  _268
REMARK  110  A    between atoms: _268  and  _269
REMARK  111  A    between atoms: _268  and  _271
REMARK  112  A    between atoms: _271  and  _272
REMARK  113  A    between atoms: _272  and  _273
REMARK  114  A    between atoms: _273  and  _274
REMARK  115  A    between atoms: _274  and  _275
REMARK  116  A    between atoms: _279  and  _281
REMARK  117  A    between atoms: _281  and  _282
REMARK  118  A    between atoms: _285  and  _287
REMARK  119  A    between atoms: _287  and  _288
REMARK  120  A    between atoms: _291  and  _293
REMARK  121  A    between atoms: _293  and  _294
REMARK  122  A    between atoms: _293  and  _296
REMARK  123  A    between atoms: _296  and  _297
REMARK                            x       y       z     vdW  Elec       q    Type
REMARK                         _______ _______ _______ _____ _____    ______ ____
ROOT
ATOM      1  O   HOH     1      53.250  35.166   2.897  0.00  0.00    +0.000 OA
ENDROOT
TORSDOF 0
REMARK  Name = ../refined-set-2016/1sv3/1sv3_pocket.pdb
REMARK  123 active torsions:
REMARK  status: ('A' for Active; 'I' for Inactive)
REMARK    1  A    between atoms: _1  and  _3
REMARK    2  A    between atoms: _3  and  _4
REMARK    3  A    between atoms: _3  and  _6
REMARK    4  A    between atoms: _6  and  _7
REMARK    5  A    between atoms: _10  and  _12
REMARK    6  A    between atoms: _12  and  _13
REMARK    7  A    between atoms: _12  and  _15
REMARK    8  A    between atoms: _15  and  _16
REMARK    9  A    between atoms: _19  and  _21
REMARK   10  A    between atoms: _21  and  _22
REMARK   11  A    between atoms: _21  and  _24
REMARK   12  A    between atoms: _24  and  _25
REMARK   13  A    between atoms: _31  and  _33
REMARK   14  A    between atoms: _33  and  _34
REMARK   15  A    between atoms: _36  and  _38
REMARK   16  A    between atoms: _38  and  _39
REMARK   17  A    between atoms: _38  and  _41
REMARK   18  A    between atoms: _41  and  _42
REMARK   19  A    between atoms: _42  and  _43
REMARK   20  A    between atoms: _43  and  _44
REMARK   21  A    between atoms: _44  and  _45
REMARK   22  A    between atoms: _49  and  _51
REMARK   23  A    between atoms: _51  and  _52
REMARK   24  A    between atoms: _51  and  _54
REMARK   25  A    between atoms: _54  and  _55
REMARK   26  A    between atoms: _58  and  _60
REMARK   27  A    between atoms: _60  and  _61
REMARK   28  A    between atoms: _60  and  _63
REMARK   29  A    between atoms: _63  and  _64
REMARK   30  A    between atoms: _67  and  _69
REMARK   31  A    between atoms: _69  and  _70
REMARK   32  A    between atoms: _73  and  _75
REMARK   33  A    between atoms: _75  and  _76
REMARK   34  A    between atoms: _75  and  _78
REMARK   35  A    between atoms: _78  and  _79
REMARK   36  A    between atoms: _83  and  _84
REMARK   37  A    between atoms: _89  and  _91
REMARK   38  A    between atoms: _91  and  _92
REMARK   39  A    between atoms: _91  and  _94
REMARK   40  A    between atoms: _94  and  _95
REMARK   41  A    between atoms: _97  and  _99
REMARK   42  A    between atoms: _99  and  _100
REMARK   43  A    between atoms: _99  and  _102
REMARK   44  A    between atoms: _102  and  _103
REMARK   45  A    between atoms: _108  and  _109
REMARK   46  A    between atoms: _111  and  _113
REMARK   47  A    between atoms: _113  and  _114
REMARK   48  A    between atoms: _113  and  _116
REMARK   49  A    between atoms: _116  and  _117
REMARK   50  A    between atoms: _119  and  _121
REMARK   51  A    between atoms: _121  and  _122
REMARK   52  A    between atoms: _121  and  _124
REMARK   53  A    between atoms: _124  and  _125
REMARK   54  A    between atoms: _127  and  _129
REMARK   55  A    between atoms: _129  and  _130
REMARK   56  A    between atoms: _129  and  _132
REMARK   57  A    between atoms: _132  and  _133
REMARK   58  A    between atoms: _138  and  _139
REMARK   59  A    between atoms: _141  and  _143
REMARK   60  A    between atoms: _143  and  _144
REMARK   61  A    between atoms: _143  and  _146
REMARK   62  A    between atoms: _146  and  _147
REMARK   63  A    between atoms: _152  and  _153
REMARK   64  A    between atoms: _155  and  _157
REMARK   65  A    between atoms: _157  and  _158
REMARK   66  A    between atoms: _157  and  _160
REMARK   67  A    between atoms: _160  and  _161
REMARK   68  A    between atoms: _161  and  _219
REMARK   69  A    between atoms: _162  and  _164
REMARK   70  A    between atoms: _164  and  _165
REMARK   71  A    between atoms: _167  and  _169
REMARK   72  A    between atoms: _169  and  _170
REMARK   73  A    between atoms: _169  and  _172
REMARK   74  A    between atoms: _172  and  _173
REMARK   75  A    between atoms: _183  and  _185
REMARK   76  A    between atoms: _185  and  _186
REMARK   77  A    between atoms: _188  and  _190
REMARK   78  A    between atoms: _190  and  _191
REMARK   79  A    between atoms: _190  and  _193
REMARK   80  A    between atoms: _193  and  _194
REMARK   81  A    between atoms: _197  and  _199
REMARK   82  A    between atoms: _199  and  _200
REMARK   83  A    between atoms: _199  and  _202
REMARK   84  A    between atoms: _202  and  _203
REMARK   85  A    between atoms: _206  and  _208
REMARK   86  A    between atoms: _208  and  _209
REMARK   87  A    between atoms: _208  and  _211
REMARK   88  A    between atoms: _213  and  _215
REMARK   89  A    between atoms: _215  and  _216
REMARK   90  A    between atoms: _215  and  _218
REMARK   91  A    between atoms: _218  and  _219
REMARK   92  A    between atoms: _220  and  _222
REMARK   93  A    between atoms: _222  and  _223
REMARK   94  A    between atoms: _222  and  _225
REMARK   95  A    between atoms: _225  and  _226
REMARK   96  A    between atoms: _232  and  _234
REMARK   97  A    between atoms: _234  and  _235
REMARK   98  A    between atoms: _234  and  _237
REMARK   99  A    between atoms: _237  and  _238
REMARK  100  A    between atoms: _243  and  _245
REMARK  101  A    between atoms: _245  and  _246
REMARK  102  A    between atoms: _245  and  _248
REMARK  103  A    between atoms: _248  and  _249
REMARK  104  A    between atoms: _252  and  _254
REMARK  105  A    between atoms: _254  and  _255
REMARK  106  A    between atoms: _254  and  _257
REMARK  107  A    between atoms: _257  and  _258
REMARK  108  A    between atoms: _263  and  _264
REMARK  109  A    between atoms: _266  and  _268
REMARK  110  A    between atoms: _268  and  _269
REMARK  111  A    between atoms: _268  and  _271
REMARK  112  A    between atoms: _271  and  _272
REMARK  113  A    between atoms: _272  and  _273
REMARK  114  A    between atoms: _273  and  _274
REMARK  115  A    between atoms: _274  and  _275
REMARK  116  A    between atoms: _279  and  _281
REMARK  117  A    between atoms: _281  and  _282
REMARK  118  A    between atoms: _285  and  _287
REMARK  119  A    between atoms: _287  and  _288
REMARK  120  A    between atoms: _291  and  _293
REMARK  121  A    between atoms: _293  and  _294
REMARK  122  A    between atoms: _293  and  _296
REMARK  123  A    between atoms: _296  and  _297
REMARK                            x       y       z     vdW  Elec       q    Type
REMARK                         _______ _______ _______ _____ _____    ______ ____
ROOT
ATOM      1  O   HOH     1      51.223  34.814   9.524  0.00  0.00    +0.000 OA
ENDROOT
TORSDOF 0
REMARK  Name = ../refined-set-2016/1sv3/1sv3_pocket.pdb
REMARK  123 active torsions:
REMARK  status: ('A' for Active; 'I' for Inactive)
REMARK    1  A    between atoms: _1  and  _3
REMARK    2  A    between atoms: _3  and  _4
REMARK    3  A    between atoms: _3  and  _6
REMARK    4  A    between atoms: _6  and  _7
REMARK    5  A    between atoms: _10  and  _12
REMARK    6  A    between atoms: _12  and  _13
REMARK    7  A    between atoms: _12  and  _15
REMARK    8  A    between atoms: _15  and  _16
REMARK    9  A    between atoms: _19  and  _21
REMARK   10  A    between atoms: _21  and  _22
REMARK   11  A    between atoms: _21  and  _24
REMARK   12  A    between atoms: _24  and  _25
REMARK   13  A    between atoms: _31  and  _33
REMARK   14  A    between atoms: _33  and  _34
REMARK   15  A    between atoms: _36  and  _38
REMARK   16  A    between atoms: _38  and  _39
REMARK   17  A    between atoms: _38  and  _41
REMARK   18  A    between atoms: _41  and  _42
REMARK   19  A    between atoms: _42  and  _43
REMARK   20  A    between atoms: _43  and  _44
REMARK   21  A    between atoms: _44  and  _45
REMARK   22  A    between atoms: _49  and  _51
REMARK   23  A    between atoms: _51  and  _52
REMARK   24  A    between atoms: _51  and  _54
REMARK   25  A    between atoms: _54  and  _55
REMARK   26  A    between atoms: _58  and  _60
REMARK   27  A    between atoms: _60  and  _61
REMARK   28  A    between atoms: _60  and  _63
REMARK   29  A    between atoms: _63  and  _64
REMARK   30  A    between atoms: _67  and  _69
REMARK   31  A    between atoms: _69  and  _70
REMARK   32  A    between atoms: _73  and  _75
REMARK   33  A    between atoms: _75  and  _76
REMARK   34  A    between atoms: _75  and  _78
REMARK   35  A    between atoms: _78  and  _79
REMARK   36  A    between atoms: _83  and  _84
REMARK   37  A    between atoms: _89  and  _91
REMARK   38  A    between atoms: _91  and  _92
REMARK   39  A    between atoms: _91  and  _94
REMARK   40  A    between atoms: _94  and  _95
REMARK   41  A    between atoms: _97  and  _99
REMARK   42  A    between atoms: _99  and  _100
REMARK   43  A    between atoms: _99  and  _102
REMARK   44  A    between atoms: _102  and  _103
REMARK   45  A    between atoms: _108  and  _109
REMARK   46  A    between atoms: _111  and  _113
REMARK   47  A    between atoms: _113  and  _114
REMARK   48  A    between atoms: _113  and  _116
REMARK   49  A    between atoms: _116  and  _117
REMARK   50  A    between atoms: _119  and  _121
REMARK   51  A    between atoms: _121  and  _122
REMARK   52  A    between atoms: _121  and  _124
REMARK   53  A    between atoms: _124  and  _125
REMARK   54  A    between atoms: _127  and  _129
REMARK   55  A    between atoms: _129  and  _130
REMARK   56  A    between atoms: _129  and  _132
REMARK   57  A    between atoms: _132  and  _133
REMARK   58  A    between atoms: _138  and  _139
REMARK   59  A    between atoms: _141  and  _143
REMARK   60  A    between atoms: _143  and  _144
REMARK   61  A    between atoms: _143  and  _146
REMARK   62  A    between atoms: _146  and  _147
REMARK   63  A    between atoms: _152  and  _153
REMARK   64  A    between atoms: _155  and  _157
REMARK   65  A    between atoms: _157  and  _158
REMARK   66  A    between atoms: _157  and  _160
REMARK   67  A    between atoms: _160  and  _161
REMARK   68  A    between atoms: _161  and  _219
REMARK   69  A    between atoms: _162  and  _164
REMARK   70  A    between atoms: _164  and  _165
REMARK   71  A    between atoms: _167  and  _169
REMARK   72  A    between atoms: _169  and  _170
REMARK   73  A    between atoms: _169  and  _172
REMARK   74  A    between atoms: _172  and  _173
REMARK   75  A    between atoms: _183  and  _185
REMARK   76  A    between atoms: _185  and  _186
REMARK   77  A    between atoms: _188  and  _190
REMARK   78  A    between atoms: _190  and  _191
REMARK   79  A    between atoms: _190  and  _193
REMARK   80  A    between atoms: _193  and  _194
REMARK   81  A    between atoms: _197  and  _199
REMARK   82  A    between atoms: _199  and  _200
REMARK   83  A    between atoms: _199  and  _202
REMARK   84  A    between atoms: _202  and  _203
REMARK   85  A    between atoms: _206  and  _208
REMARK   86  A    between atoms: _208  and  _209
REMARK   87  A    between atoms: _208  and  _211
REMARK   88  A    between atoms: _213  and  _215
REMARK   89  A    between atoms: _215  and  _216
REMARK   90  A    between atoms: _215  and  _218
REMARK   91  A    between atoms: _218  and  _219
REMARK   92  A    between atoms: _220  and  _222
REMARK   93  A    between atoms: _222  and  _223
REMARK   94  A    between atoms: _222  and  _225
REMARK   95  A    between atoms: _225  and  _226
REMARK   96  A    between atoms: _232  and  _234
REMARK   97  A    between atoms: _234  and  _235
REMARK   98  A    between atoms: _234  and  _237
REMARK   99  A    between atoms: _237  and  _238
REMARK  100  A    between atoms: _243  and  _245
REMARK  101  A    between atoms: _245  and  _246
REMARK  102  A    between atoms: _245  and  _248
REMARK  103  A    between atoms: _248  and  _249
REMARK  104  A    between atoms: _252  and  _254
REMARK  105  A    between atoms: _254  and  _255
REMARK  106  A    between atoms: _254  and  _257
REMARK  107  A    between atoms: _257  and  _258
REMARK  108  A    between atoms: _263  and  _264
REMARK  109  A    between atoms: _266  and  _268
REMARK  110  A    between atoms: _268  and  _269
REMARK  111  A    between atoms: _268  and  _271
REMARK  112  A    between atoms: _271  and  _272
REMARK  113  A    between atoms: _272  and  _273
REMARK  114  A    between atoms: _273  and  _274
REMARK  115  A    between atoms: _274  and  _275
REMARK  116  A    between atoms: _279  and  _281
REMARK  117  A    between atoms: _281  and  _282
REMARK  118  A    between atoms: _285  and  _287
REMARK  119  A    between atoms: _287  and  _288
REMARK  120  A    between atoms: _291  and  _293
REMARK  121  A    between atoms: _293  and  _294
REMARK  122  A    between atoms: _293  and  _296
REMARK  123  A    between atoms: _296  and  _297
REMARK                            x       y       z     vdW  Elec       q    Type
REMARK                         _______ _______ _______ _____ _____    ______ ____
ROOT
ATOM      1  O   HOH     1      52.350  37.020  10.658  0.00  0.00    +0.000 OA
ENDROOT
TORSDOF 0
REMARK  Name = ../refined-set-2016/1sv3/1sv3_pocket.pdb
REMARK  123 active torsions:
REMARK  status: ('A' for Active; 'I' for Inactive)
REMARK    1  A    between atoms: _1  and  _3
REMARK    2  A    between atoms: _3  and  _4
REMARK    3  A    between atoms: _3  and  _6
REMARK    4  A    between atoms: _6  and  _7
REMARK    5  A    between atoms: _10  and  _12
REMARK    6  A    between atoms: _12  and  _13
REMARK    7  A    between atoms: _12  and  _15
REMARK    8  A    between atoms: _15  and  _16
REMARK    9  A    between atoms: _19  and  _21
REMARK   10  A    between atoms: _21  and  _22
REMARK   11  A    between atoms: _21  and  _24
REMARK   12  A    between atoms: _24  and  _25
REMARK   13  A    between atoms: _31  and  _33
REMARK   14  A    between atoms: _33  and  _34
REMARK   15  A    between atoms: _36  and  _38
REMARK   16  A    between atoms: _38  and  _39
REMARK   17  A    between atoms: _38  and  _41
REMARK   18  A    between atoms: _41  and  _42
REMARK   19  A    between atoms: _42  and  _43
REMARK   20  A    between atoms: _43  and  _44
REMARK   21  A    between atoms: _44  and  _45
REMARK   22  A    between atoms: _49  and  _51
REMARK   23  A    between atoms: _51  and  _52
REMARK   24  A    between atoms: _51  and  _54
REMARK   25  A    between atoms: _54  and  _55
REMARK   26  A    between atoms: _58  and  _60
REMARK   27  A    between atoms: _60  and  _61
REMARK   28  A    between atoms: _60  and  _63
REMARK   29  A    between atoms: _63  and  _64
REMARK   30  A    between atoms: _67  and  _69
REMARK   31  A    between atoms: _69  and  _70
REMARK   32  A    between atoms: _73  and  _75
REMARK   33  A    between atoms: _75  and  _76
REMARK   34  A    between atoms: _75  and  _78
REMARK   35  A    between atoms: _78  and  _79
REMARK   36  A    between atoms: _83  and  _84
REMARK   37  A    between atoms: _89  and  _91
REMARK   38  A    between atoms: _91  and  _92
REMARK   39  A    between atoms: _91  and  _94
REMARK   40  A    between atoms: _94  and  _95
REMARK   41  A    between atoms: _97  and  _99
REMARK   42  A    between atoms: _99  and  _100
REMARK   43  A    between atoms: _99  and  _102
REMARK   44  A    between atoms: _102  and  _103
REMARK   45  A    between atoms: _108  and  _109
REMARK   46  A    between atoms: _111  and  _113
REMARK   47  A    between atoms: _113  and  _114
REMARK   48  A    between atoms: _113  and  _116
REMARK   49  A    between atoms: _116  and  _117
REMARK   50  A    between atoms: _119  and  _121
REMARK   51  A    between atoms: _121  and  _122
REMARK   52  A    between atoms: _121  and  _124
REMARK   53  A    between atoms: _124  and  _125
REMARK   54  A    between atoms: _127  and  _129
REMARK   55  A    between atoms: _129  and  _130
REMARK   56  A    between atoms: _129  and  _132
REMARK   57  A    between atoms: _132  and  _133
REMARK   58  A    between atoms: _138  and  _139
REMARK   59  A    between atoms: _141  and  _143
REMARK   60  A    between atoms: _143  and  _144
REMARK   61  A    between atoms: _143  and  _146
REMARK   62  A    between atoms: _146  and  _147
REMARK   63  A    between atoms: _152  and  _153
REMARK   64  A    between atoms: _155  and  _157
REMARK   65  A    between atoms: _157  and  _158
REMARK   66  A    between atoms: _157  and  _160
REMARK   67  A    between atoms: _160  and  _161
REMARK   68  A    between atoms: _161  and  _219
REMARK   69  A    between atoms: _162  and  _164
REMARK   70  A    between atoms: _164  and  _165
REMARK   71  A    between atoms: _167  and  _169
REMARK   72  A    between atoms: _169  and  _170
REMARK   73  A    between atoms: _169  and  _172
REMARK   74  A    between atoms: _172  and  _173
REMARK   75  A    between atoms: _183  and  _185
REMARK   76  A    between atoms: _185  and  _186
REMARK   77  A    between atoms: _188  and  _190
REMARK   78  A    between atoms: _190  and  _191
REMARK   79  A    between atoms: _190  and  _193
REMARK   80  A    between atoms: _193  and  _194
REMARK   81  A    between atoms: _197  and  _199
REMARK   82  A    between atoms: _199  and  _200
REMARK   83  A    between atoms: _199  and  _202
REMARK   84  A    between atoms: _202  and  _203
REMARK   85  A    between atoms: _206  and  _208
REMARK   86  A    between atoms: _208  and  _209
REMARK   87  A    between atoms: _208  and  _211
REMARK   88  A    between atoms: _213  and  _215
REMARK   89  A    between atoms: _215  and  _216
REMARK   90  A    between atoms: _215  and  _218
REMARK   91  A    between atoms: _218  and  _219
REMARK   92  A    between atoms: _220  and  _222
REMARK   93  A    between atoms: _222  and  _223
REMARK   94  A    between atoms: _222  and  _225
REMARK   95  A    between atoms: _225  and  _226
REMARK   96  A    between atoms: _232  and  _234
REMARK   97  A    between atoms: _234  and  _235
REMARK   98  A    between atoms: _234  and  _237
REMARK   99  A    between atoms: _237  and  _238
REMARK  100  A    between atoms: _243  and  _245
REMARK  101  A    between atoms: _245  and  _246
REMARK  102  A    between atoms: _245  and  _248
REMARK  103  A    between atoms: _248  and  _249
REMARK  104  A    between atoms: _252  and  _254
REMARK  105  A    between atoms: _254  and  _255
REMARK  106  A    between atoms: _254  and  _257
REMARK  107  A    between atoms: _257  and  _258
REMARK  108  A    between atoms: _263  and  _264
REMARK  109  A    between atoms: _266  and  _268
REMARK  110  A    between atoms: _268  and  _269
REMARK  111  A    between atoms: _268  and  _271
REMARK  112  A    between atoms: _271  and  _272
REMARK  113  A    between atoms: _272  and  _273
REMARK  114  A    between atoms: _273  and  _274
REMARK  115  A    between atoms: _274  and  _275
REMARK  116  A    between atoms: _279  and  _281
REMARK  117  A    between atoms: _281  and  _282
REMARK  118  A    between atoms: _285  and  _287
REMARK  119  A    between atoms: _287  and  _288
REMARK  120  A    between atoms: _291  and  _293
REMARK  121  A    between atoms: _293  and  _294
REMARK  122  A    between atoms: _293  and  _296
REMARK  123  A    between atoms: _296  and  _297
REMARK                            x       y       z     vdW  Elec       q    Type
REMARK                         _______ _______ _______ _____ _____    ______ ____
ROOT
ATOM      1  O   HOH     1      44.949  31.932   3.719  0.00  0.00    +0.000 OA
ENDROOT
TORSDOF 0
