REMARK  Name = ../refined-set-2016/3sap/3sap_pocket.pdb
REMARK  163 active torsions:
REMARK  status: ('A' for Active; 'I' for Inactive)
REMARK    1  A    between atoms: _1  and  _3
REMARK    2  A    between atoms: _3  and  _4
REMARK    3  A    between atoms: _3  and  _6
REMARK    4  A    between atoms: _6  and  _7
REMARK    5  A    between atoms: _17  and  _19
REMARK    6  A    between atoms: _19  and  _20
REMARK    7  A    between atoms: _19  and  _22
REMARK    8  A    between atoms: _22  and  _23
REMARK    9  A    between atoms: _28  and  _29
REMARK   10  A    between atoms: _31  and  _33
REMARK   11  A    between atoms: _33  and  _34
REMARK   12  A    between atoms: _33  and  _36
REMARK   13  A    between atoms: _36  and  _37
REMARK   14  A    between atoms: _43  and  _45
REMARK   15  A    between atoms: _45  and  _46
REMARK   16  A    between atoms: _45  and  _48
REMARK   17  A    between atoms: _48  and  _49
REMARK   18  A    between atoms: _52  and  _53
REMARK   19  A    between atoms: _58  and  _60
REMARK   20  A    between atoms: _60  and  _61
REMARK   21  A    between atoms: _60  and  _63
REMARK   22  A    between atoms: _63  and  _64
REMARK   23  A    between atoms: _69  and  _71
REMARK   24  A    between atoms: _71  and  _72
REMARK   25  A    between atoms: _75  and  _77
REMARK   26  A    between atoms: _77  and  _78
REMARK   27  A    between atoms: _77  and  _80
REMARK   28  A    between atoms: _80  and  _81
REMARK   29  A    between atoms: _86  and  _88
REMARK   30  A    between atoms: _88  and  _89
REMARK   31  A    between atoms: _88  and  _91
REMARK   32  A    between atoms: _91  and  _92
REMARK   33  A    between atoms: _95  and  _97
REMARK   34  A    between atoms: _97  and  _98
REMARK   35  A    between atoms: _97  and  _100
REMARK   36  A    between atoms: _100  and  _101
REMARK   37  A    between atoms: _101  and  _102
REMARK   38  A    between atoms: _107  and  _109
REMARK   39  A    between atoms: _109  and  _110
REMARK   40  A    between atoms: _109  and  _112
REMARK   41  A    between atoms: _112  and  _113
REMARK   42  A    between atoms: _119  and  _121
REMARK   43  A    between atoms: _132  and  _135
REMARK   44  A    between atoms: _135  and  _136
REMARK   45  A    between atoms: _144  and  _145
REMARK   46  A    between atoms: _153  and  _155
REMARK   47  A    between atoms: _155  and  _156
REMARK   48  A    between atoms: _155  and  _158
REMARK   49  A    between atoms: _158  and  _159
REMARK   50  A    between atoms: _159  and  _160
REMARK   51  A    between atoms: _163  and  _165
REMARK   52  A    between atoms: _165  and  _166
REMARK   53  A    between atoms: _165  and  _168
REMARK   54  A    between atoms: _168  and  _169
REMARK   55  A    between atoms: _174  and  _176
REMARK   56  A    between atoms: _176  and  _177
REMARK   57  A    between atoms: _176  and  _179
REMARK   58  A    between atoms: _179  and  _180
REMARK   59  A    between atoms: _180  and  _181
REMARK   60  A    between atoms: _184  and  _186
REMARK   61  A    between atoms: _186  and  _187
REMARK   62  A    between atoms: _186  and  _189
REMARK   63  A    between atoms: _189  and  _190
REMARK   64  A    between atoms: _193  and  _195
REMARK   65  A    between atoms: _195  and  _196
REMARK   66  A    between atoms: _195  and  _198
REMARK   67  A    between atoms: _198  and  _199
REMARK   68  A    between atoms: _200  and  ZN_450
REMARK   69  A    between atoms: _204  and  _206
REMARK   70  A    between atoms: _206  and  _207
REMARK   71  A    between atoms: _206  and  _209
REMARK   72  A    between atoms: _209  and  _210
REMARK   73  A    between atoms: _213  and  _215
REMARK   74  A    between atoms: _215  and  _216
REMARK   75  A    between atoms: _215  and  _218
REMARK   76  A    between atoms: _221  and  _223
REMARK   77  A    between atoms: _223  and  _224
REMARK   78  A    between atoms: _223  and  _226
REMARK   79  A    between atoms: _226  and  _227
REMARK   80  A    between atoms: _232  and  _234
REMARK   81  A    between atoms: _234  and  _235
REMARK   82  A    between atoms: _234  and  _237
REMARK   83  A    between atoms: _237  and  _238
REMARK   84  A    between atoms: _244  and  _246
REMARK   85  A    between atoms: _246  and  _247
REMARK   86  A    between atoms: _249  and  _251
REMARK   87  A    between atoms: _251  and  _252
REMARK   88  A    between atoms: _251  and  _254
REMARK   89  A    between atoms: _254  and  _255
REMARK   90  A    between atoms: _255  and  _256
REMARK   91  A    between atoms: _256  and  _257
REMARK   92  A    between atoms: _257  and  _258
REMARK   93  A    between atoms: _262  and  _264
REMARK   94  A    between atoms: _264  and  _265
REMARK   95  A    between atoms: _264  and  _267
REMARK   96  A    between atoms: _270  and  _272
REMARK   97  A    between atoms: _272  and  _273
REMARK   98  A    between atoms: _272  and  _275
REMARK   99  A    between atoms: _275  and  _276
REMARK  100  A    between atoms: _276  and  _277
REMARK  101  A    between atoms: _282  and  _284
REMARK  102  A    between atoms: _284  and  _285
REMARK  103  A    between atoms: _284  and  _287
REMARK  104  A    between atoms: _287  and  _288
REMARK  105  A    between atoms: _291  and  _293
REMARK  106  A    between atoms: _293  and  _294
REMARK  107  A    between atoms: _297  and  _299
REMARK  108  A    between atoms: _299  and  _300
REMARK  109  A    between atoms: _299  and  _302
REMARK  110  A    between atoms: _305  and  _307
REMARK  111  A    between atoms: _307  and  _308
REMARK  112  A    between atoms: _307  and  _310
REMARK  113  A    between atoms: _310  and  _311
REMARK  114  A    between atoms: _314  and  _316
REMARK  115  A    between atoms: _316  and  _317
REMARK  116  A    between atoms: _319  and  _321
REMARK  117  A    between atoms: _321  and  _322
REMARK  118  A    between atoms: _324  and  _326
REMARK  119  A    between atoms: _326  and  _327
REMARK  120  A    between atoms: _326  and  _329
REMARK  121  A    between atoms: _329  and  _330
REMARK  122  A    between atoms: _332  and  _334
REMARK  123  A    between atoms: _334  and  _335
REMARK  124  A    between atoms: _334  and  _337
REMARK  125  A    between atoms: _337  and  _338
REMARK  126  A    between atoms: _341  and  _343
REMARK  127  A    between atoms: _343  and  _344
REMARK  128  A    between atoms: _343  and  _346
REMARK  129  A    between atoms: _346  and  _347
REMARK  130  A    between atoms: _350  and  _352
REMARK  131  A    between atoms: _352  and  _353
REMARK  132  A    between atoms: _352  and  _355
REMARK  133  A    between atoms: _355  and  _356
REMARK  134  A    between atoms: _360  and  _361
REMARK  135  A    between atoms: _367  and  _368
REMARK  136  A    between atoms: _373  and  _375
REMARK  137  A    between atoms: _375  and  _376
REMARK  138  A    between atoms: _375  and  _378
REMARK  139  A    between atoms: _378  and  _379
REMARK  140  A    between atoms: _382  and  _384
REMARK  141  A    between atoms: _384  and  _385
REMARK  142  A    between atoms: _384  and  _387
REMARK  143  A    between atoms: _387  and  _388
REMARK  144  A    between atoms: _391  and  _393
REMARK  145  A    between atoms: _393  and  _394
REMARK  146  A    between atoms: _393  and  _396
REMARK  147  A    between atoms: _398  and  _400
REMARK  148  A    between atoms: _400  and  _401
REMARK  149  A    between atoms: _400  and  _403
REMARK  150  A    between atoms: _406  and  _408
REMARK  151  A    between atoms: _408  and  _409
REMARK  152  A    between atoms: _408  and  _411
REMARK  153  A    between atoms: _411  and  _412
REMARK  154  A    between atoms: _422  and  _424
REMARK  155  A    between atoms: _424  and  _425
REMARK  156  A    between atoms: _424  and  _427
REMARK  157  A    between atoms: _427  and  _428
REMARK  158  A    between atoms: _433  and  _435
REMARK  159  A    between atoms: _435  and  _436
REMARK  160  A    between atoms: _435  and  _438
REMARK  161  A    between atoms: _438  and  _439
REMARK  162  A    between atoms: _439  and  _440
REMARK  163  A    between atoms: _440  and  _441
REMARK                            x       y       z     vdW  Elec       q    Type
REMARK                         _______ _______ _______ _____ _____    ______ ____
ROOT
ATOM      1  CG  TRP A   1       6.027   0.086  12.035  0.00  0.00    -0.002 A 
ATOM      2  CD2 TRP A   1       4.669  -0.373  12.001  0.00  0.00    +0.013 A 
ATOM      3  CE3 TRP A   1       4.062  -1.611  12.250  0.00  0.00    +0.001 A 
ATOM      4  CZ3 TRP A   1       2.693  -1.712  12.093  0.00  0.00    +0.000 A 
ATOM      5  CH2 TRP A   1       1.921  -0.603  11.710  0.00  0.00    +0.001 A 
ATOM      6  CZ2 TRP A   1       2.481   0.613  11.459  0.00  0.00    +0.017 A 
ATOM      7  CE2 TRP A   1       3.869   0.713  11.585  0.00  0.00    +0.056 A 
ATOM      8  NE1 TRP A   1       4.698   1.794  11.411  0.00  0.00    -0.352 N 
ATOM      9  HE1 TRP A   1       4.397   2.747  11.123  0.00  0.00    +0.166 HD
ATOM     10  CD1 TRP A   1       5.996   1.411  11.681  0.00  0.00    +0.068 A 
ENDROOT
BRANCH   1  11
ATOM     11  CB  TRP A   1       7.221  -0.729  12.424  0.00  0.00    +0.053 C 
BRANCH  11  12
ATOM     12  CA  TRP A   1       7.888  -1.466  11.260  0.00  0.00    +0.137 C 
BRANCH  12  13
ATOM     13  N   TRP A   1       8.608  -0.556  10.342  0.00  0.00    -0.239 NA
ATOM     14  H   TRP A   1       8.488   0.473  10.429  0.00  0.00    +0.142 HD
ENDBRANCH  12  13
BRANCH  12  15
ATOM     15  C   TRP A   1       6.869  -2.271  10.489  0.00  0.00    +0.224 C 
ATOM     16  O   TRP A   1       6.349  -1.828   9.471  0.00  0.00    -0.287 OA
ENDBRANCH  12  15
ENDBRANCH  11  12
ENDBRANCH   1  11
TORSDOF 4
REMARK  Name = ../refined-set-2016/3sap/3sap_pocket.pdb
REMARK  163 active torsions:
REMARK  status: ('A' for Active; 'I' for Inactive)
REMARK    1  A    between atoms: _1  and  _3
REMARK    2  A    between atoms: _3  and  _4
REMARK    3  A    between atoms: _3  and  _6
REMARK    4  A    between atoms: _6  and  _7
REMARK    5  A    between atoms: _17  and  _19
REMARK    6  A    between atoms: _19  and  _20
REMARK    7  A    between atoms: _19  and  _22
REMARK    8  A    between atoms: _22  and  _23
REMARK    9  A    between atoms: _28  and  _29
REMARK   10  A    between atoms: _31  and  _33
REMARK   11  A    between atoms: _33  and  _34
REMARK   12  A    between atoms: _33  and  _36
REMARK   13  A    between atoms: _36  and  _37
REMARK   14  A    between atoms: _43  and  _45
REMARK   15  A    between atoms: _45  and  _46
REMARK   16  A    between atoms: _45  and  _48
REMARK   17  A    between atoms: _48  and  _49
REMARK   18  A    between atoms: _52  and  _53
REMARK   19  A    between atoms: _58  and  _60
REMARK   20  A    between atoms: _60  and  _61
REMARK   21  A    between atoms: _60  and  _63
REMARK   22  A    between atoms: _63  and  _64
REMARK   23  A    between atoms: _69  and  _71
REMARK   24  A    between atoms: _71  and  _72
REMARK   25  A    between atoms: _75  and  _77
REMARK   26  A    between atoms: _77  and  _78
REMARK   27  A    between atoms: _77  and  _80
REMARK   28  A    between atoms: _80  and  _81
REMARK   29  A    between atoms: _86  and  _88
REMARK   30  A    between atoms: _88  and  _89
REMARK   31  A    between atoms: _88  and  _91
REMARK   32  A    between atoms: _91  and  _92
REMARK   33  A    between atoms: _95  and  _97
REMARK   34  A    between atoms: _97  and  _98
REMARK   35  A    between atoms: _97  and  _100
REMARK   36  A    between atoms: _100  and  _101
REMARK   37  A    between atoms: _101  and  _102
REMARK   38  A    between atoms: _107  and  _109
REMARK   39  A    between atoms: _109  and  _110
REMARK   40  A    between atoms: _109  and  _112
REMARK   41  A    between atoms: _112  and  _113
REMARK   42  A    between atoms: _119  and  _121
REMARK   43  A    between atoms: _132  and  _135
REMARK   44  A    between atoms: _135  and  _136
REMARK   45  A    between atoms: _144  and  _145
REMARK   46  A    between atoms: _153  and  _155
REMARK   47  A    between atoms: _155  and  _156
REMARK   48  A    between atoms: _155  and  _158
REMARK   49  A    between atoms: _158  and  _159
REMARK   50  A    between atoms: _159  and  _160
REMARK   51  A    between atoms: _163  and  _165
REMARK   52  A    between atoms: _165  and  _166
REMARK   53  A    between atoms: _165  and  _168
REMARK   54  A    between atoms: _168  and  _169
REMARK   55  A    between atoms: _174  and  _176
REMARK   56  A    between atoms: _176  and  _177
REMARK   57  A    between atoms: _176  and  _179
REMARK   58  A    between atoms: _179  and  _180
REMARK   59  A    between atoms: _180  and  _181
REMARK   60  A    between atoms: _184  and  _186
REMARK   61  A    between atoms: _186  and  _187
REMARK   62  A    between atoms: _186  and  _189
REMARK   63  A    between atoms: _189  and  _190
REMARK   64  A    between atoms: _193  and  _195
REMARK   65  A    between atoms: _195  and  _196
REMARK   66  A    between atoms: _195  and  _198
REMARK   67  A    between atoms: _198  and  _199
REMARK   68  A    between atoms: _200  and  ZN_450
REMARK   69  A    between atoms: _204  and  _206
REMARK   70  A    between atoms: _206  and  _207
REMARK   71  A    between atoms: _206  and  _209
REMARK   72  A    between atoms: _209  and  _210
REMARK   73  A    between atoms: _213  and  _215
REMARK   74  A    between atoms: _215  and  _216
REMARK   75  A    between atoms: _215  and  _218
REMARK   76  A    between atoms: _221  and  _223
REMARK   77  A    between atoms: _223  and  _224
REMARK   78  A    between atoms: _223  and  _226
REMARK   79  A    between atoms: _226  and  _227
REMARK   80  A    between atoms: _232  and  _234
REMARK   81  A    between atoms: _234  and  _235
REMARK   82  A    between atoms: _234  and  _237
REMARK   83  A    between atoms: _237  and  _238
REMARK   84  A    between atoms: _244  and  _246
REMARK   85  A    between atoms: _246  and  _247
REMARK   86  A    between atoms: _249  and  _251
REMARK   87  A    between atoms: _251  and  _252
REMARK   88  A    between atoms: _251  and  _254
REMARK   89  A    between atoms: _254  and  _255
REMARK   90  A    between atoms: _255  and  _256
REMARK   91  A    between atoms: _256  and  _257
REMARK   92  A    between atoms: _257  and  _258
REMARK   93  A    between atoms: _262  and  _264
REMARK   94  A    between atoms: _264  and  _265
REMARK   95  A    between atoms: _264  and  _267
REMARK   96  A    between atoms: _270  and  _272
REMARK   97  A    between atoms: _272  and  _273
REMARK   98  A    between atoms: _272  and  _275
REMARK   99  A    between atoms: _275  and  _276
REMARK  100  A    between atoms: _276  and  _277
REMARK  101  A    between atoms: _282  and  _284
REMARK  102  A    between atoms: _284  and  _285
REMARK  103  A    between atoms: _284  and  _287
REMARK  104  A    between atoms: _287  and  _288
REMARK  105  A    between atoms: _291  and  _293
REMARK  106  A    between atoms: _293  and  _294
REMARK  107  A    between atoms: _297  and  _299
REMARK  108  A    between atoms: _299  and  _300
REMARK  109  A    between atoms: _299  and  _302
REMARK  110  A    between atoms: _305  and  _307
REMARK  111  A    between atoms: _307  and  _308
REMARK  112  A    between atoms: _307  and  _310
REMARK  113  A    between atoms: _310  and  _311
REMARK  114  A    between atoms: _314  and  _316
REMARK  115  A    between atoms: _316  and  _317
REMARK  116  A    between atoms: _319  and  _321
REMARK  117  A    between atoms: _321  and  _322
REMARK  118  A    between atoms: _324  and  _326
REMARK  119  A    between atoms: _326  and  _327
REMARK  120  A    between atoms: _326  and  _329
REMARK  121  A    between atoms: _329  and  _330
REMARK  122  A    between atoms: _332  and  _334
REMARK  123  A    between atoms: _334  and  _335
REMARK  124  A    between atoms: _334  and  _337
REMARK  125  A    between atoms: _337  and  _338
REMARK  126  A    between atoms: _341  and  _343
REMARK  127  A    between atoms: _343  and  _344
REMARK  128  A    between atoms: _343  and  _346
REMARK  129  A    between atoms: _346  and  _347
REMARK  130  A    between atoms: _350  and  _352
REMARK  131  A    between atoms: _352  and  _353
REMARK  132  A    between atoms: _352  and  _355
REMARK  133  A    between atoms: _355  and  _356
REMARK  134  A    between atoms: _360  and  _361
REMARK  135  A    between atoms: _367  and  _368
REMARK  136  A    between atoms: _373  and  _375
REMARK  137  A    between atoms: _375  and  _376
REMARK  138  A    between atoms: _375  and  _378
REMARK  139  A    between atoms: _378  and  _379
REMARK  140  A    between atoms: _382  and  _384
REMARK  141  A    between atoms: _384  and  _385
REMARK  142  A    between atoms: _384  and  _387
REMARK  143  A    between atoms: _387  and  _388
REMARK  144  A    between atoms: _391  and  _393
REMARK  145  A    between atoms: _393  and  _394
REMARK  146  A    between atoms: _393  and  _396
REMARK  147  A    between atoms: _398  and  _400
REMARK  148  A    between atoms: _400  and  _401
REMARK  149  A    between atoms: _400  and  _403
REMARK  150  A    between atoms: _406  and  _408
REMARK  151  A    between atoms: _408  and  _409
REMARK  152  A    between atoms: _408  and  _411
REMARK  153  A    between atoms: _411  and  _412
REMARK  154  A    between atoms: _422  and  _424
REMARK  155  A    between atoms: _424  and  _425
REMARK  156  A    between atoms: _424  and  _427
REMARK  157  A    between atoms: _427  and  _428
REMARK  158  A    between atoms: _433  and  _435
REMARK  159  A    between atoms: _435  and  _436
REMARK  160  A    between atoms: _435  and  _438
REMARK  161  A    between atoms: _438  and  _439
REMARK  162  A    between atoms: _439  and  _440
REMARK  163  A    between atoms: _440  and  _441
REMARK                            x       y       z     vdW  Elec       q    Type
REMARK                         _______ _______ _______ _____ _____    ______ ____
ROOT
ATOM      1  CG  TYR A   1       2.104  -6.978  11.698  0.00  0.00    -0.020 A 
ATOM      2  CD2 TYR A   1       1.710  -6.977  13.050  0.00  0.00    -0.001 A 
ATOM      3  CE2 TYR A   1       0.822  -5.980  13.550  0.00  0.00    +0.036 A 
ATOM      4  CZ  TYR A   1       0.332  -4.992  12.683  0.00  0.00    +0.134 A 
ATOM      5  CE1 TYR A   1       0.707  -4.985  11.331  0.00  0.00    +0.036 A 
ATOM      6  CD1 TYR A   1       1.599  -5.979  10.855  0.00  0.00    -0.001 A 
ENDROOT
BRANCH   4   7
ATOM      7  OH  TYR A   1      -0.534  -4.010  13.136  0.00  0.00    -0.506 OA
ATOM      8  HH  TYR A   1      -0.706  -4.143  14.102  0.00  0.00    +0.292 HD
ENDBRANCH   4   7
BRANCH   1   9
ATOM      9  CB  TYR A   1       3.048  -8.046  11.156  0.00  0.00    +0.051 C 
BRANCH   9  10
ATOM     10  CA  TYR A   1       4.526  -7.736  11.413  0.00  0.00    +0.137 C 
BRANCH  10  11
ATOM     11  N   TYR A   1       4.916  -6.581  10.623  0.00  0.00    -0.239 NA
ATOM     12  H   TYR A   1       4.956  -6.644   9.586  0.00  0.00    +0.142 HD
ENDBRANCH  10  11
BRANCH  10  13
ATOM     13  C   TYR A   1       5.410  -8.993  11.273  0.00  0.00    +0.224 C 
ATOM     14  O   TYR A   1       5.037 -10.060  11.791  0.00  0.00    -0.287 OA
ENDBRANCH  10  13
ENDBRANCH   9  10
ENDBRANCH   1   9
TORSDOF 5
REMARK  Name = ../refined-set-2016/3sap/3sap_pocket.pdb
REMARK  163 active torsions:
REMARK  status: ('A' for Active; 'I' for Inactive)
REMARK    1  A    between atoms: _1  and  _3
REMARK    2  A    between atoms: _3  and  _4
REMARK    3  A    between atoms: _3  and  _6
REMARK    4  A    between atoms: _6  and  _7
REMARK    5  A    between atoms: _17  and  _19
REMARK    6  A    between atoms: _19  and  _20
REMARK    7  A    between atoms: _19  and  _22
REMARK    8  A    between atoms: _22  and  _23
REMARK    9  A    between atoms: _28  and  _29
REMARK   10  A    between atoms: _31  and  _33
REMARK   11  A    between atoms: _33  and  _34
REMARK   12  A    between atoms: _33  and  _36
REMARK   13  A    between atoms: _36  and  _37
REMARK   14  A    between atoms: _43  and  _45
REMARK   15  A    between atoms: _45  and  _46
REMARK   16  A    between atoms: _45  and  _48
REMARK   17  A    between atoms: _48  and  _49
REMARK   18  A    between atoms: _52  and  _53
REMARK   19  A    between atoms: _58  and  _60
REMARK   20  A    between atoms: _60  and  _61
REMARK   21  A    between atoms: _60  and  _63
REMARK   22  A    between atoms: _63  and  _64
REMARK   23  A    between atoms: _69  and  _71
REMARK   24  A    between atoms: _71  and  _72
REMARK   25  A    between atoms: _75  and  _77
REMARK   26  A    between atoms: _77  and  _78
REMARK   27  A    between atoms: _77  and  _80
REMARK   28  A    between atoms: _80  and  _81
REMARK   29  A    between atoms: _86  and  _88
REMARK   30  A    between atoms: _88  and  _89
REMARK   31  A    between atoms: _88  and  _91
REMARK   32  A    between atoms: _91  and  _92
REMARK   33  A    between atoms: _95  and  _97
REMARK   34  A    between atoms: _97  and  _98
REMARK   35  A    between atoms: _97  and  _100
REMARK   36  A    between atoms: _100  and  _101
REMARK   37  A    between atoms: _101  and  _102
REMARK   38  A    between atoms: _107  and  _109
REMARK   39  A    between atoms: _109  and  _110
REMARK   40  A    between atoms: _109  and  _112
REMARK   41  A    between atoms: _112  and  _113
REMARK   42  A    between atoms: _119  and  _121
REMARK   43  A    between atoms: _132  and  _135
REMARK   44  A    between atoms: _135  and  _136
REMARK   45  A    between atoms: _144  and  _145
REMARK   46  A    between atoms: _153  and  _155
REMARK   47  A    between atoms: _155  and  _156
REMARK   48  A    between atoms: _155  and  _158
REMARK   49  A    between atoms: _158  and  _159
REMARK   50  A    between atoms: _159  and  _160
REMARK   51  A    between atoms: _163  and  _165
REMARK   52  A    between atoms: _165  and  _166
REMARK   53  A    between atoms: _165  and  _168
REMARK   54  A    between atoms: _168  and  _169
REMARK   55  A    between atoms: _174  and  _176
REMARK   56  A    between atoms: _176  and  _177
REMARK   57  A    between atoms: _176  and  _179
REMARK   58  A    between atoms: _179  and  _180
REMARK   59  A    between atoms: _180  and  _181
REMARK   60  A    between atoms: _184  and  _186
REMARK   61  A    between atoms: _186  and  _187
REMARK   62  A    between atoms: _186  and  _189
REMARK   63  A    between atoms: _189  and  _190
REMARK   64  A    between atoms: _193  and  _195
REMARK   65  A    between atoms: _195  and  _196
REMARK   66  A    between atoms: _195  and  _198
REMARK   67  A    between atoms: _198  and  _199
REMARK   68  A    between atoms: _200  and  ZN_450
REMARK   69  A    between atoms: _204  and  _206
REMARK   70  A    between atoms: _206  and  _207
REMARK   71  A    between atoms: _206  and  _209
REMARK   72  A    between atoms: _209  and  _210
REMARK   73  A    between atoms: _213  and  _215
REMARK   74  A    between atoms: _215  and  _216
REMARK   75  A    between atoms: _215  and  _218
REMARK   76  A    between atoms: _221  and  _223
REMARK   77  A    between atoms: _223  and  _224
REMARK   78  A    between atoms: _223  and  _226
REMARK   79  A    between atoms: _226  and  _227
REMARK   80  A    between atoms: _232  and  _234
REMARK   81  A    between atoms: _234  and  _235
REMARK   82  A    between atoms: _234  and  _237
REMARK   83  A    between atoms: _237  and  _238
REMARK   84  A    between atoms: _244  and  _246
REMARK   85  A    between atoms: _246  and  _247
REMARK   86  A    between atoms: _249  and  _251
REMARK   87  A    between atoms: _251  and  _252
REMARK   88  A    between atoms: _251  and  _254
REMARK   89  A    between atoms: _254  and  _255
REMARK   90  A    between atoms: _255  and  _256
REMARK   91  A    between atoms: _256  and  _257
REMARK   92  A    between atoms: _257  and  _258
REMARK   93  A    between atoms: _262  and  _264
REMARK   94  A    between atoms: _264  and  _265
REMARK   95  A    between atoms: _264  and  _267
REMARK   96  A    between atoms: _270  and  _272
REMARK   97  A    between atoms: _272  and  _273
REMARK   98  A    between atoms: _272  and  _275
REMARK   99  A    between atoms: _275  and  _276
REMARK  100  A    between atoms: _276  and  _277
REMARK  101  A    between atoms: _282  and  _284
REMARK  102  A    between atoms: _284  and  _285
REMARK  103  A    between atoms: _284  and  _287
REMARK  104  A    between atoms: _287  and  _288
REMARK  105  A    between atoms: _291  and  _293
REMARK  106  A    between atoms: _293  and  _294
REMARK  107  A    between atoms: _297  and  _299
REMARK  108  A    between atoms: _299  and  _300
REMARK  109  A    between atoms: _299  and  _302
REMARK  110  A    between atoms: _305  and  _307
REMARK  111  A    between atoms: _307  and  _308
REMARK  112  A    between atoms: _307  and  _310
REMARK  113  A    between atoms: _310  and  _311
REMARK  114  A    between atoms: _314  and  _316
REMARK  115  A    between atoms: _316  and  _317
REMARK  116  A    between atoms: _319  and  _321
REMARK  117  A    between atoms: _321  and  _322
REMARK  118  A    between atoms: _324  and  _326
REMARK  119  A    between atoms: _326  and  _327
REMARK  120  A    between atoms: _326  and  _329
REMARK  121  A    between atoms: _329  and  _330
REMARK  122  A    between atoms: _332  and  _334
REMARK  123  A    between atoms: _334  and  _335
REMARK  124  A    between atoms: _334  and  _337
REMARK  125  A    between atoms: _337  and  _338
REMARK  126  A    between atoms: _341  and  _343
REMARK  127  A    between atoms: _343  and  _344
REMARK  128  A    between atoms: _343  and  _346
REMARK  129  A    between atoms: _346  and  _347
REMARK  130  A    between atoms: _350  and  _352
REMARK  131  A    between atoms: _352  and  _353
REMARK  132  A    between atoms: _352  and  _355
REMARK  133  A    between atoms: _355  and  _356
REMARK  134  A    between atoms: _360  and  _361
REMARK  135  A    between atoms: _367  and  _368
REMARK  136  A    between atoms: _373  and  _375
REMARK  137  A    between atoms: _375  and  _376
REMARK  138  A    between atoms: _375  and  _378
REMARK  139  A    between atoms: _378  and  _379
REMARK  140  A    between atoms: _382  and  _384
REMARK  141  A    between atoms: _384  and  _385
REMARK  142  A    between atoms: _384  and  _387
REMARK  143  A    between atoms: _387  and  _388
REMARK  144  A    between atoms: _391  and  _393
REMARK  145  A    between atoms: _393  and  _394
REMARK  146  A    between atoms: _393  and  _396
REMARK  147  A    between atoms: _398  and  _400
REMARK  148  A    between atoms: _400  and  _401
REMARK  149  A    between atoms: _400  and  _403
REMARK  150  A    between atoms: _406  and  _408
REMARK  151  A    between atoms: _408  and  _409
REMARK  152  A    between atoms: _408  and  _411
REMARK  153  A    between atoms: _411  and  _412
REMARK  154  A    between atoms: _422  and  _424
REMARK  155  A    between atoms: _424  and  _425
REMARK  156  A    between atoms: _424  and  _427
REMARK  157  A    between atoms: _427  and  _428
REMARK  158  A    between atoms: _433  and  _435
REMARK  159  A    between atoms: _435  and  _436
REMARK  160  A    between atoms: _435  and  _438
REMARK  161  A    between atoms: _438  and  _439
REMARK  162  A    between atoms: _439  and  _440
REMARK  163  A    between atoms: _440  and  _441
REMARK                            x       y       z     vdW  Elec       q    Type
REMARK                         _______ _______ _______ _____ _____    ______ ____
ROOT
ATOM      1  CB  PHE A   1       7.506   3.261  18.936  0.00  0.00    +0.051 C 
ENDROOT
BRANCH   1   2
ATOM      2  CG  PHE A   1       7.382   3.682  17.514  0.00  0.00    -0.020 A 
ATOM      3  CD2 PHE A   1       6.973   4.976  17.197  0.00  0.00    -0.004 A 
ATOM      4  CE2 PHE A   1       6.869   5.365  15.871  0.00  0.00    -0.000 A 
ATOM      5  CZ  PHE A   1       7.216   4.481  14.862  0.00  0.00    -0.000 A 
ATOM      6  CE1 PHE A   1       7.646   3.186  15.166  0.00  0.00    -0.000 A 
ATOM      7  CD1 PHE A   1       7.726   2.802  16.483  0.00  0.00    -0.004 A 
ENDBRANCH   1   2
BRANCH   1   8
ATOM      8  CA  PHE A   1       8.847   3.666  19.564  0.00  0.00    +0.137 C 
BRANCH   8   9
ATOM      9  N   PHE A   1       9.953   3.112  18.757  0.00  0.00    -0.239 NA
ATOM     10  H   PHE A   1      10.153   2.094  18.836  0.00  0.00    +0.142 HD
ENDBRANCH   8   9
BRANCH   8  11
ATOM     11  C   PHE A   1       8.931   3.170  20.999  0.00  0.00    +0.224 C 
ATOM     12  O   PHE A   1       8.250   2.199  21.371  0.00  0.00    -0.287 OA
ENDBRANCH   8  11
ENDBRANCH   1   8
TORSDOF 4
REMARK  Name = ../refined-set-2016/3sap/3sap_pocket.pdb
REMARK  163 active torsions:
REMARK  status: ('A' for Active; 'I' for Inactive)
REMARK    1  A    between atoms: _1  and  _3
REMARK    2  A    between atoms: _3  and  _4
REMARK    3  A    between atoms: _3  and  _6
REMARK    4  A    between atoms: _6  and  _7
REMARK    5  A    between atoms: _17  and  _19
REMARK    6  A    between atoms: _19  and  _20
REMARK    7  A    between atoms: _19  and  _22
REMARK    8  A    between atoms: _22  and  _23
REMARK    9  A    between atoms: _28  and  _29
REMARK   10  A    between atoms: _31  and  _33
REMARK   11  A    between atoms: _33  and  _34
REMARK   12  A    between atoms: _33  and  _36
REMARK   13  A    between atoms: _36  and  _37
REMARK   14  A    between atoms: _43  and  _45
REMARK   15  A    between atoms: _45  and  _46
REMARK   16  A    between atoms: _45  and  _48
REMARK   17  A    between atoms: _48  and  _49
REMARK   18  A    between atoms: _52  and  _53
REMARK   19  A    between atoms: _58  and  _60
REMARK   20  A    between atoms: _60  and  _61
REMARK   21  A    between atoms: _60  and  _63
REMARK   22  A    between atoms: _63  and  _64
REMARK   23  A    between atoms: _69  and  _71
REMARK   24  A    between atoms: _71  and  _72
REMARK   25  A    between atoms: _75  and  _77
REMARK   26  A    between atoms: _77  and  _78
REMARK   27  A    between atoms: _77  and  _80
REMARK   28  A    between atoms: _80  and  _81
REMARK   29  A    between atoms: _86  and  _88
REMARK   30  A    between atoms: _88  and  _89
REMARK   31  A    between atoms: _88  and  _91
REMARK   32  A    between atoms: _91  and  _92
REMARK   33  A    between atoms: _95  and  _97
REMARK   34  A    between atoms: _97  and  _98
REMARK   35  A    between atoms: _97  and  _100
REMARK   36  A    between atoms: _100  and  _101
REMARK   37  A    between atoms: _101  and  _102
REMARK   38  A    between atoms: _107  and  _109
REMARK   39  A    between atoms: _109  and  _110
REMARK   40  A    between atoms: _109  and  _112
REMARK   41  A    between atoms: _112  and  _113
REMARK   42  A    between atoms: _119  and  _121
REMARK   43  A    between atoms: _132  and  _135
REMARK   44  A    between atoms: _135  and  _136
REMARK   45  A    between atoms: _144  and  _145
REMARK   46  A    between atoms: _153  and  _155
REMARK   47  A    between atoms: _155  and  _156
REMARK   48  A    between atoms: _155  and  _158
REMARK   49  A    between atoms: _158  and  _159
REMARK   50  A    between atoms: _159  and  _160
REMARK   51  A    between atoms: _163  and  _165
REMARK   52  A    between atoms: _165  and  _166
REMARK   53  A    between atoms: _165  and  _168
REMARK   54  A    between atoms: _168  and  _169
REMARK   55  A    between atoms: _174  and  _176
REMARK   56  A    between atoms: _176  and  _177
REMARK   57  A    between atoms: _176  and  _179
REMARK   58  A    between atoms: _179  and  _180
REMARK   59  A    between atoms: _180  and  _181
REMARK   60  A    between atoms: _184  and  _186
REMARK   61  A    between atoms: _186  and  _187
REMARK   62  A    between atoms: _186  and  _189
REMARK   63  A    between atoms: _189  and  _190
REMARK   64  A    between atoms: _193  and  _195
REMARK   65  A    between atoms: _195  and  _196
REMARK   66  A    between atoms: _195  and  _198
REMARK   67  A    between atoms: _198  and  _199
REMARK   68  A    between atoms: _200  and  ZN_450
REMARK   69  A    between atoms: _204  and  _206
REMARK   70  A    between atoms: _206  and  _207
REMARK   71  A    between atoms: _206  and  _209
REMARK   72  A    between atoms: _209  and  _210
REMARK   73  A    between atoms: _213  and  _215
REMARK   74  A    between atoms: _215  and  _216
REMARK   75  A    between atoms: _215  and  _218
REMARK   76  A    between atoms: _221  and  _223
REMARK   77  A    between atoms: _223  and  _224
REMARK   78  A    between atoms: _223  and  _226
REMARK   79  A    between atoms: _226  and  _227
REMARK   80  A    between atoms: _232  and  _234
REMARK   81  A    between atoms: _234  and  _235
REMARK   82  A    between atoms: _234  and  _237
REMARK   83  A    between atoms: _237  and  _238
REMARK   84  A    between atoms: _244  and  _246
REMARK   85  A    between atoms: _246  and  _247
REMARK   86  A    between atoms: _249  and  _251
REMARK   87  A    between atoms: _251  and  _252
REMARK   88  A    between atoms: _251  and  _254
REMARK   89  A    between atoms: _254  and  _255
REMARK   90  A    between atoms: _255  and  _256
REMARK   91  A    between atoms: _256  and  _257
REMARK   92  A    between atoms: _257  and  _258
REMARK   93  A    between atoms: _262  and  _264
REMARK   94  A    between atoms: _264  and  _265
REMARK   95  A    between atoms: _264  and  _267
REMARK   96  A    between atoms: _270  and  _272
REMARK   97  A    between atoms: _272  and  _273
REMARK   98  A    between atoms: _272  and  _275
REMARK   99  A    between atoms: _275  and  _276
REMARK  100  A    between atoms: _276  and  _277
REMARK  101  A    between atoms: _282  and  _284
REMARK  102  A    between atoms: _284  and  _285
REMARK  103  A    between atoms: _284  and  _287
REMARK  104  A    between atoms: _287  and  _288
REMARK  105  A    between atoms: _291  and  _293
REMARK  106  A    between atoms: _293  and  _294
REMARK  107  A    between atoms: _297  and  _299
REMARK  108  A    between atoms: _299  and  _300
REMARK  109  A    between atoms: _299  and  _302
REMARK  110  A    between atoms: _305  and  _307
REMARK  111  A    between atoms: _307  and  _308
REMARK  112  A    between atoms: _307  and  _310
REMARK  113  A    between atoms: _310  and  _311
REMARK  114  A    between atoms: _314  and  _316
REMARK  115  A    between atoms: _316  and  _317
REMARK  116  A    between atoms: _319  and  _321
REMARK  117  A    between atoms: _321  and  _322
REMARK  118  A    between atoms: _324  and  _326
REMARK  119  A    between atoms: _326  and  _327
REMARK  120  A    between atoms: _326  and  _329
REMARK  121  A    between atoms: _329  and  _330
REMARK  122  A    between atoms: _332  and  _334
REMARK  123  A    between atoms: _334  and  _335
REMARK  124  A    between atoms: _334  and  _337
REMARK  125  A    between atoms: _337  and  _338
REMARK  126  A    between atoms: _341  and  _343
REMARK  127  A    between atoms: _343  and  _344
REMARK  128  A    between atoms: _343  and  _346
REMARK  129  A    between atoms: _346  and  _347
REMARK  130  A    between atoms: _350  and  _352
REMARK  131  A    between atoms: _352  and  _353
REMARK  132  A    between atoms: _352  and  _355
REMARK  133  A    between atoms: _355  and  _356
REMARK  134  A    between atoms: _360  and  _361
REMARK  135  A    between atoms: _367  and  _368
REMARK  136  A    between atoms: _373  and  _375
REMARK  137  A    between atoms: _375  and  _376
REMARK  138  A    between atoms: _375  and  _378
REMARK  139  A    between atoms: _378  and  _379
REMARK  140  A    between atoms: _382  and  _384
REMARK  141  A    between atoms: _384  and  _385
REMARK  142  A    between atoms: _384  and  _387
REMARK  143  A    between atoms: _387  and  _388
REMARK  144  A    between atoms: _391  and  _393
REMARK  145  A    between atoms: _393  and  _394
REMARK  146  A    between atoms: _393  and  _396
REMARK  147  A    between atoms: _398  and  _400
REMARK  148  A    between atoms: _400  and  _401
REMARK  149  A    between atoms: _400  and  _403
REMARK  150  A    between atoms: _406  and  _408
REMARK  151  A    between atoms: _408  and  _409
REMARK  152  A    between atoms: _408  and  _411
REMARK  153  A    between atoms: _411  and  _412
REMARK  154  A    between atoms: _422  and  _424
REMARK  155  A    between atoms: _424  and  _425
REMARK  156  A    between atoms: _424  and  _427
REMARK  157  A    between atoms: _427  and  _428
REMARK  158  A    between atoms: _433  and  _435
REMARK  159  A    between atoms: _435  and  _436
REMARK  160  A    between atoms: _435  and  _438
REMARK  161  A    between atoms: _438  and  _439
REMARK  162  A    between atoms: _439  and  _440
REMARK  163  A    between atoms: _440  and  _441
REMARK                            x       y       z     vdW  Elec       q    Type
REMARK                         _______ _______ _______ _____ _____    ______ ____
ROOT
ATOM      1  C   SER A   1      -2.138  -3.095  23.084  0.00  0.00    +0.244 C 
ATOM      2  N   PRO A   2      -2.763  -4.269  22.853  0.00  0.00    -0.273 N 
ATOM      3  CA  PRO A   2      -3.917  -4.821  23.573  0.00  0.00    +0.140 C 
ATOM      4  CB  PRO A   2      -4.428  -5.888  22.597  0.00  0.00    +0.030 C 
ATOM      5  CG  PRO A   2      -3.140  -6.428  21.966  0.00  0.00    +0.024 C 
ATOM      6  CD  PRO A   2      -2.286  -5.175  21.787  0.00  0.00    +0.094 C 
ATOM      7  O   SER A   1      -1.227  -2.672  22.379  0.00  0.00    -0.273 OA
ENDROOT
BRANCH   3   8
ATOM      8  C   PRO A   2      -3.541  -5.479  24.905  0.00  0.00    +0.227 C 
ATOM      9  O   PRO A   2      -2.368  -5.471  25.285  0.00  0.00    -0.286 OA
ENDBRANCH   3   8
BRANCH   1  10
ATOM     10  CA  SER A   1      -2.662  -2.234  24.223  0.00  0.00    +0.175 C 
BRANCH  10  11
ATOM     11  N   SER A   1      -1.614  -1.339  24.705  0.00  0.00    -0.236 NA
ATOM     12  H   SER A   1      -1.143  -0.710  24.024  0.00  0.00    +0.142 HD
ENDBRANCH  10  11
BRANCH  10  13
ATOM     13  CB  SER A   1      -3.848  -1.421  23.720  0.00  0.00    +0.163 C 
BRANCH  13  14
ATOM     14  OG  SER A   1      -4.417  -0.721  24.844  0.00  0.00    -0.380 OA
ATOM     15  H   SER A   1      -4.715  -1.377  25.523  0.00  0.00    +0.211 HD
ENDBRANCH  13  14
ENDBRANCH  10  13
ENDBRANCH   1  10
TORSDOF 5
REMARK  Name = ../refined-set-2016/3sap/3sap_pocket.pdb
REMARK  163 active torsions:
REMARK  status: ('A' for Active; 'I' for Inactive)
REMARK    1  A    between atoms: _1  and  _3
REMARK    2  A    between atoms: _3  and  _4
REMARK    3  A    between atoms: _3  and  _6
REMARK    4  A    between atoms: _6  and  _7
REMARK    5  A    between atoms: _17  and  _19
REMARK    6  A    between atoms: _19  and  _20
REMARK    7  A    between atoms: _19  and  _22
REMARK    8  A    between atoms: _22  and  _23
REMARK    9  A    between atoms: _28  and  _29
REMARK   10  A    between atoms: _31  and  _33
REMARK   11  A    between atoms: _33  and  _34
REMARK   12  A    between atoms: _33  and  _36
REMARK   13  A    between atoms: _36  and  _37
REMARK   14  A    between atoms: _43  and  _45
REMARK   15  A    between atoms: _45  and  _46
REMARK   16  A    between atoms: _45  and  _48
REMARK   17  A    between atoms: _48  and  _49
REMARK   18  A    between atoms: _52  and  _53
REMARK   19  A    between atoms: _58  and  _60
REMARK   20  A    between atoms: _60  and  _61
REMARK   21  A    between atoms: _60  and  _63
REMARK   22  A    between atoms: _63  and  _64
REMARK   23  A    between atoms: _69  and  _71
REMARK   24  A    between atoms: _71  and  _72
REMARK   25  A    between atoms: _75  and  _77
REMARK   26  A    between atoms: _77  and  _78
REMARK   27  A    between atoms: _77  and  _80
REMARK   28  A    between atoms: _80  and  _81
REMARK   29  A    between atoms: _86  and  _88
REMARK   30  A    between atoms: _88  and  _89
REMARK   31  A    between atoms: _88  and  _91
REMARK   32  A    between atoms: _91  and  _92
REMARK   33  A    between atoms: _95  and  _97
REMARK   34  A    between atoms: _97  and  _98
REMARK   35  A    between atoms: _97  and  _100
REMARK   36  A    between atoms: _100  and  _101
REMARK   37  A    between atoms: _101  and  _102
REMARK   38  A    between atoms: _107  and  _109
REMARK   39  A    between atoms: _109  and  _110
REMARK   40  A    between atoms: _109  and  _112
REMARK   41  A    between atoms: _112  and  _113
REMARK   42  A    between atoms: _119  and  _121
REMARK   43  A    between atoms: _132  and  _135
REMARK   44  A    between atoms: _135  and  _136
REMARK   45  A    between atoms: _144  and  _145
REMARK   46  A    between atoms: _153  and  _155
REMARK   47  A    between atoms: _155  and  _156
REMARK   48  A    between atoms: _155  and  _158
REMARK   49  A    between atoms: _158  and  _159
REMARK   50  A    between atoms: _159  and  _160
REMARK   51  A    between atoms: _163  and  _165
REMARK   52  A    between atoms: _165  and  _166
REMARK   53  A    between atoms: _165  and  _168
REMARK   54  A    between atoms: _168  and  _169
REMARK   55  A    between atoms: _174  and  _176
REMARK   56  A    between atoms: _176  and  _177
REMARK   57  A    between atoms: _176  and  _179
REMARK   58  A    between atoms: _179  and  _180
REMARK   59  A    between atoms: _180  and  _181
REMARK   60  A    between atoms: _184  and  _186
REMARK   61  A    between atoms: _186  and  _187
REMARK   62  A    between atoms: _186  and  _189
REMARK   63  A    between atoms: _189  and  _190
REMARK   64  A    between atoms: _193  and  _195
REMARK   65  A    between atoms: _195  and  _196
REMARK   66  A    between atoms: _195  and  _198
REMARK   67  A    between atoms: _198  and  _199
REMARK   68  A    between atoms: _200  and  ZN_450
REMARK   69  A    between atoms: _204  and  _206
REMARK   70  A    between atoms: _206  and  _207
REMARK   71  A    between atoms: _206  and  _209
REMARK   72  A    between atoms: _209  and  _210
REMARK   73  A    between atoms: _213  and  _215
REMARK   74  A    between atoms: _215  and  _216
REMARK   75  A    between atoms: _215  and  _218
REMARK   76  A    between atoms: _221  and  _223
REMARK   77  A    between atoms: _223  and  _224
REMARK   78  A    between atoms: _223  and  _226
REMARK   79  A    between atoms: _226  and  _227
REMARK   80  A    between atoms: _232  and  _234
REMARK   81  A    between atoms: _234  and  _235
REMARK   82  A    between atoms: _234  and  _237
REMARK   83  A    between atoms: _237  and  _238
REMARK   84  A    between atoms: _244  and  _246
REMARK   85  A    between atoms: _246  and  _247
REMARK   86  A    between atoms: _249  and  _251
REMARK   87  A    between atoms: _251  and  _252
REMARK   88  A    between atoms: _251  and  _254
REMARK   89  A    between atoms: _254  and  _255
REMARK   90  A    between atoms: _255  and  _256
REMARK   91  A    between atoms: _256  and  _257
REMARK   92  A    between atoms: _257  and  _258
REMARK   93  A    between atoms: _262  and  _264
REMARK   94  A    between atoms: _264  and  _265
REMARK   95  A    between atoms: _264  and  _267
REMARK   96  A    between atoms: _270  and  _272
REMARK   97  A    between atoms: _272  and  _273
REMARK   98  A    between atoms: _272  and  _275
REMARK   99  A    between atoms: _275  and  _276
REMARK  100  A    between atoms: _276  and  _277
REMARK  101  A    between atoms: _282  and  _284
REMARK  102  A    between atoms: _284  and  _285
REMARK  103  A    between atoms: _284  and  _287
REMARK  104  A    between atoms: _287  and  _288
REMARK  105  A    between atoms: _291  and  _293
REMARK  106  A    between atoms: _293  and  _294
REMARK  107  A    between atoms: _297  and  _299
REMARK  108  A    between atoms: _299  and  _300
REMARK  109  A    between atoms: _299  and  _302
REMARK  110  A    between atoms: _305  and  _307
REMARK  111  A    between atoms: _307  and  _308
REMARK  112  A    between atoms: _307  and  _310
REMARK  113  A    between atoms: _310  and  _311
REMARK  114  A    between atoms: _314  and  _316
REMARK  115  A    between atoms: _316  and  _317
REMARK  116  A    between atoms: _319  and  _321
REMARK  117  A    between atoms: _321  and  _322
REMARK  118  A    between atoms: _324  and  _326
REMARK  119  A    between atoms: _326  and  _327
REMARK  120  A    between atoms: _326  and  _329
REMARK  121  A    between atoms: _329  and  _330
REMARK  122  A    between atoms: _332  and  _334
REMARK  123  A    between atoms: _334  and  _335
REMARK  124  A    between atoms: _334  and  _337
REMARK  125  A    between atoms: _337  and  _338
REMARK  126  A    between atoms: _341  and  _343
REMARK  127  A    between atoms: _343  and  _344
REMARK  128  A    between atoms: _343  and  _346
REMARK  129  A    between atoms: _346  and  _347
REMARK  130  A    between atoms: _350  and  _352
REMARK  131  A    between atoms: _352  and  _353
REMARK  132  A    between atoms: _352  and  _355
REMARK  133  A    between atoms: _355  and  _356
REMARK  134  A    between atoms: _360  and  _361
REMARK  135  A    between atoms: _367  and  _368
REMARK  136  A    between atoms: _373  and  _375
REMARK  137  A    between atoms: _375  and  _376
REMARK  138  A    between atoms: _375  and  _378
REMARK  139  A    between atoms: _378  and  _379
REMARK  140  A    between atoms: _382  and  _384
REMARK  141  A    between atoms: _384  and  _385
REMARK  142  A    between atoms: _384  and  _387
REMARK  143  A    between atoms: _387  and  _388
REMARK  144  A    between atoms: _391  and  _393
REMARK  145  A    between atoms: _393  and  _394
REMARK  146  A    between atoms: _393  and  _396
REMARK  147  A    between atoms: _398  and  _400
REMARK  148  A    between atoms: _400  and  _401
REMARK  149  A    between atoms: _400  and  _403
REMARK  150  A    between atoms: _406  and  _408
REMARK  151  A    between atoms: _408  and  _409
REMARK  152  A    between atoms: _408  and  _411
REMARK  153  A    between atoms: _411  and  _412
REMARK  154  A    between atoms: _422  and  _424
REMARK  155  A    between atoms: _424  and  _425
REMARK  156  A    between atoms: _424  and  _427
REMARK  157  A    between atoms: _427  and  _428
REMARK  158  A    between atoms: _433  and  _435
REMARK  159  A    between atoms: _435  and  _436
REMARK  160  A    between atoms: _435  and  _438
REMARK  161  A    between atoms: _438  and  _439
REMARK  162  A    between atoms: _439  and  _440
REMARK  163  A    between atoms: _440  and  _441
REMARK                            x       y       z     vdW  Elec       q    Type
REMARK                         _______ _______ _______ _____ _____    ______ ____
ROOT
ATOM      1  CB  ASN A   1      -2.424   1.962   5.243  0.00  0.00    +0.110 C 
ENDROOT
BRANCH   1   2
ATOM      2  CG  ASN A   1      -2.681   1.092   6.484  0.00  0.00    +0.221 C 
ATOM      3  ND2 ASN A   1      -3.172   1.730   7.551  0.00  0.00    -0.329 N 
ATOM      4 HD21 ASN A   1      -3.345   1.209   8.434  0.00  0.00    +0.145 HD
ATOM      5 HD22 ASN A   1      -3.381   2.747   7.498  0.00  0.00    +0.145 HD
ATOM      6  OD1 ASN A   1      -2.413  -0.130   6.495  0.00  0.00    -0.275 OA
ENDBRANCH   1   2
BRANCH   1   7
ATOM      7  CA  ASN A   1      -2.056   1.132   3.990  0.00  0.00    +0.142 C 
BRANCH   7   8
ATOM      8  N   ASN A   1      -3.199   0.325   3.519  0.00  0.00    -0.239 NA
ATOM      9  H   ASN A   1      -3.810  -0.152   4.213  0.00  0.00    +0.142 HD
ENDBRANCH   7   8
BRANCH   7  10
ATOM     10  C   ASN A   1      -0.802   0.316   4.232  0.00  0.00    +0.225 C 
ATOM     11  O   ASN A   1       0.166   0.803   4.839  0.00  0.00    -0.287 OA
ENDBRANCH   7  10
ENDBRANCH   1   7
TORSDOF 4
REMARK  Name = ../refined-set-2016/3sap/3sap_pocket.pdb
REMARK  163 active torsions:
REMARK  status: ('A' for Active; 'I' for Inactive)
REMARK    1  A    between atoms: _1  and  _3
REMARK    2  A    between atoms: _3  and  _4
REMARK    3  A    between atoms: _3  and  _6
REMARK    4  A    between atoms: _6  and  _7
REMARK    5  A    between atoms: _17  and  _19
REMARK    6  A    between atoms: _19  and  _20
REMARK    7  A    between atoms: _19  and  _22
REMARK    8  A    between atoms: _22  and  _23
REMARK    9  A    between atoms: _28  and  _29
REMARK   10  A    between atoms: _31  and  _33
REMARK   11  A    between atoms: _33  and  _34
REMARK   12  A    between atoms: _33  and  _36
REMARK   13  A    between atoms: _36  and  _37
REMARK   14  A    between atoms: _43  and  _45
REMARK   15  A    between atoms: _45  and  _46
REMARK   16  A    between atoms: _45  and  _48
REMARK   17  A    between atoms: _48  and  _49
REMARK   18  A    between atoms: _52  and  _53
REMARK   19  A    between atoms: _58  and  _60
REMARK   20  A    between atoms: _60  and  _61
REMARK   21  A    between atoms: _60  and  _63
REMARK   22  A    between atoms: _63  and  _64
REMARK   23  A    between atoms: _69  and  _71
REMARK   24  A    between atoms: _71  and  _72
REMARK   25  A    between atoms: _75  and  _77
REMARK   26  A    between atoms: _77  and  _78
REMARK   27  A    between atoms: _77  and  _80
REMARK   28  A    between atoms: _80  and  _81
REMARK   29  A    between atoms: _86  and  _88
REMARK   30  A    between atoms: _88  and  _89
REMARK   31  A    between atoms: _88  and  _91
REMARK   32  A    between atoms: _91  and  _92
REMARK   33  A    between atoms: _95  and  _97
REMARK   34  A    between atoms: _97  and  _98
REMARK   35  A    between atoms: _97  and  _100
REMARK   36  A    between atoms: _100  and  _101
REMARK   37  A    between atoms: _101  and  _102
REMARK   38  A    between atoms: _107  and  _109
REMARK   39  A    between atoms: _109  and  _110
REMARK   40  A    between atoms: _109  and  _112
REMARK   41  A    between atoms: _112  and  _113
REMARK   42  A    between atoms: _119  and  _121
REMARK   43  A    between atoms: _132  and  _135
REMARK   44  A    between atoms: _135  and  _136
REMARK   45  A    between atoms: _144  and  _145
REMARK   46  A    between atoms: _153  and  _155
REMARK   47  A    between atoms: _155  and  _156
REMARK   48  A    between atoms: _155  and  _158
REMARK   49  A    between atoms: _158  and  _159
REMARK   50  A    between atoms: _159  and  _160
REMARK   51  A    between atoms: _163  and  _165
REMARK   52  A    between atoms: _165  and  _166
REMARK   53  A    between atoms: _165  and  _168
REMARK   54  A    between atoms: _168  and  _169
REMARK   55  A    between atoms: _174  and  _176
REMARK   56  A    between atoms: _176  and  _177
REMARK   57  A    between atoms: _176  and  _179
REMARK   58  A    between atoms: _179  and  _180
REMARK   59  A    between atoms: _180  and  _181
REMARK   60  A    between atoms: _184  and  _186
REMARK   61  A    between atoms: _186  and  _187
REMARK   62  A    between atoms: _186  and  _189
REMARK   63  A    between atoms: _189  and  _190
REMARK   64  A    between atoms: _193  and  _195
REMARK   65  A    between atoms: _195  and  _196
REMARK   66  A    between atoms: _195  and  _198
REMARK   67  A    between atoms: _198  and  _199
REMARK   68  A    between atoms: _200  and  ZN_450
REMARK   69  A    between atoms: _204  and  _206
REMARK   70  A    between atoms: _206  and  _207
REMARK   71  A    between atoms: _206  and  _209
REMARK   72  A    between atoms: _209  and  _210
REMARK   73  A    between atoms: _213  and  _215
REMARK   74  A    between atoms: _215  and  _216
REMARK   75  A    between atoms: _215  and  _218
REMARK   76  A    between atoms: _221  and  _223
REMARK   77  A    between atoms: _223  and  _224
REMARK   78  A    between atoms: _223  and  _226
REMARK   79  A    between atoms: _226  and  _227
REMARK   80  A    between atoms: _232  and  _234
REMARK   81  A    between atoms: _234  and  _235
REMARK   82  A    between atoms: _234  and  _237
REMARK   83  A    between atoms: _237  and  _238
REMARK   84  A    between atoms: _244  and  _246
REMARK   85  A    between atoms: _246  and  _247
REMARK   86  A    between atoms: _249  and  _251
REMARK   87  A    between atoms: _251  and  _252
REMARK   88  A    between atoms: _251  and  _254
REMARK   89  A    between atoms: _254  and  _255
REMARK   90  A    between atoms: _255  and  _256
REMARK   91  A    between atoms: _256  and  _257
REMARK   92  A    between atoms: _257  and  _258
REMARK   93  A    between atoms: _262  and  _264
REMARK   94  A    between atoms: _264  and  _265
REMARK   95  A    between atoms: _264  and  _267
REMARK   96  A    between atoms: _270  and  _272
REMARK   97  A    between atoms: _272  and  _273
REMARK   98  A    between atoms: _272  and  _275
REMARK   99  A    between atoms: _275  and  _276
REMARK  100  A    between atoms: _276  and  _277
REMARK  101  A    between atoms: _282  and  _284
REMARK  102  A    between atoms: _284  and  _285
REMARK  103  A    between atoms: _284  and  _287
REMARK  104  A    between atoms: _287  and  _288
REMARK  105  A    between atoms: _291  and  _293
REMARK  106  A    between atoms: _293  and  _294
REMARK  107  A    between atoms: _297  and  _299
REMARK  108  A    between atoms: _299  and  _300
REMARK  109  A    between atoms: _299  and  _302
REMARK  110  A    between atoms: _305  and  _307
REMARK  111  A    between atoms: _307  and  _308
REMARK  112  A    between atoms: _307  and  _310
REMARK  113  A    between atoms: _310  and  _311
REMARK  114  A    between atoms: _314  and  _316
REMARK  115  A    between atoms: _316  and  _317
REMARK  116  A    between atoms: _319  and  _321
REMARK  117  A    between atoms: _321  and  _322
REMARK  118  A    between atoms: _324  and  _326
REMARK  119  A    between atoms: _326  and  _327
REMARK  120  A    between atoms: _326  and  _329
REMARK  121  A    between atoms: _329  and  _330
REMARK  122  A    between atoms: _332  and  _334
REMARK  123  A    between atoms: _334  and  _335
REMARK  124  A    between atoms: _334  and  _337
REMARK  125  A    between atoms: _337  and  _338
REMARK  126  A    between atoms: _341  and  _343
REMARK  127  A    between atoms: _343  and  _344
REMARK  128  A    between atoms: _343  and  _346
REMARK  129  A    between atoms: _346  and  _347
REMARK  130  A    between atoms: _350  and  _352
REMARK  131  A    between atoms: _352  and  _353
REMARK  132  A    between atoms: _352  and  _355
REMARK  133  A    between atoms: _355  and  _356
REMARK  134  A    between atoms: _360  and  _361
REMARK  135  A    between atoms: _367  and  _368
REMARK  136  A    between atoms: _373  and  _375
REMARK  137  A    between atoms: _375  and  _376
REMARK  138  A    between atoms: _375  and  _378
REMARK  139  A    between atoms: _378  and  _379
REMARK  140  A    between atoms: _382  and  _384
REMARK  141  A    between atoms: _384  and  _385
REMARK  142  A    between atoms: _384  and  _387
REMARK  143  A    between atoms: _387  and  _388
REMARK  144  A    between atoms: _391  and  _393
REMARK  145  A    between atoms: _393  and  _394
REMARK  146  A    between atoms: _393  and  _396
REMARK  147  A    between atoms: _398  and  _400
REMARK  148  A    between atoms: _400  and  _401
REMARK  149  A    between atoms: _400  and  _403
REMARK  150  A    between atoms: _406  and  _408
REMARK  151  A    between atoms: _408  and  _409
REMARK  152  A    between atoms: _408  and  _411
REMARK  153  A    between atoms: _411  and  _412
REMARK  154  A    between atoms: _422  and  _424
REMARK  155  A    between atoms: _424  and  _425
REMARK  156  A    between atoms: _424  and  _427
REMARK  157  A    between atoms: _427  and  _428
REMARK  158  A    between atoms: _433  and  _435
REMARK  159  A    between atoms: _435  and  _436
REMARK  160  A    between atoms: _435  and  _438
REMARK  161  A    between atoms: _438  and  _439
REMARK  162  A    between atoms: _439  and  _440
REMARK  163  A    between atoms: _440  and  _441
REMARK                            x       y       z     vdW  Elec       q    Type
REMARK                         _______ _______ _______ _____ _____    ______ ____
ROOT
ATOM      1  CA  ALA A   1      -4.390  -3.370   7.201  0.00  0.00    +0.133 C 
ATOM      2  CB  ALA A   1      -5.057  -3.109   8.582  0.00  0.00    +0.027 C 
ENDROOT
BRANCH   1   3
ATOM      3  N   ALA A   1      -3.016  -2.907   7.180  0.00  0.00    -0.239 NA
ATOM      4  H   ALA A   1      -2.809  -2.006   6.703  0.00  0.00    +0.142 HD
ENDBRANCH   1   3
BRANCH   1   5
ATOM      5  C   ALA A   1      -5.119  -2.623   6.087  0.00  0.00    +0.224 C 
ATOM      6  O   ALA A   1      -4.468  -1.984   5.233  0.00  0.00    -0.287 OA
ENDBRANCH   1   5
TORSDOF 2
REMARK  Name = ../refined-set-2016/3sap/3sap_pocket.pdb
REMARK  163 active torsions:
REMARK  status: ('A' for Active; 'I' for Inactive)
REMARK    1  A    between atoms: _1  and  _3
REMARK    2  A    between atoms: _3  and  _4
REMARK    3  A    between atoms: _3  and  _6
REMARK    4  A    between atoms: _6  and  _7
REMARK    5  A    between atoms: _17  and  _19
REMARK    6  A    between atoms: _19  and  _20
REMARK    7  A    between atoms: _19  and  _22
REMARK    8  A    between atoms: _22  and  _23
REMARK    9  A    between atoms: _28  and  _29
REMARK   10  A    between atoms: _31  and  _33
REMARK   11  A    between atoms: _33  and  _34
REMARK   12  A    between atoms: _33  and  _36
REMARK   13  A    between atoms: _36  and  _37
REMARK   14  A    between atoms: _43  and  _45
REMARK   15  A    between atoms: _45  and  _46
REMARK   16  A    between atoms: _45  and  _48
REMARK   17  A    between atoms: _48  and  _49
REMARK   18  A    between atoms: _52  and  _53
REMARK   19  A    between atoms: _58  and  _60
REMARK   20  A    between atoms: _60  and  _61
REMARK   21  A    between atoms: _60  and  _63
REMARK   22  A    between atoms: _63  and  _64
REMARK   23  A    between atoms: _69  and  _71
REMARK   24  A    between atoms: _71  and  _72
REMARK   25  A    between atoms: _75  and  _77
REMARK   26  A    between atoms: _77  and  _78
REMARK   27  A    between atoms: _77  and  _80
REMARK   28  A    between atoms: _80  and  _81
REMARK   29  A    between atoms: _86  and  _88
REMARK   30  A    between atoms: _88  and  _89
REMARK   31  A    between atoms: _88  and  _91
REMARK   32  A    between atoms: _91  and  _92
REMARK   33  A    between atoms: _95  and  _97
REMARK   34  A    between atoms: _97  and  _98
REMARK   35  A    between atoms: _97  and  _100
REMARK   36  A    between atoms: _100  and  _101
REMARK   37  A    between atoms: _101  and  _102
REMARK   38  A    between atoms: _107  and  _109
REMARK   39  A    between atoms: _109  and  _110
REMARK   40  A    between atoms: _109  and  _112
REMARK   41  A    between atoms: _112  and  _113
REMARK   42  A    between atoms: _119  and  _121
REMARK   43  A    between atoms: _132  and  _135
REMARK   44  A    between atoms: _135  and  _136
REMARK   45  A    between atoms: _144  and  _145
REMARK   46  A    between atoms: _153  and  _155
REMARK   47  A    between atoms: _155  and  _156
REMARK   48  A    between atoms: _155  and  _158
REMARK   49  A    between atoms: _158  and  _159
REMARK   50  A    between atoms: _159  and  _160
REMARK   51  A    between atoms: _163  and  _165
REMARK   52  A    between atoms: _165  and  _166
REMARK   53  A    between atoms: _165  and  _168
REMARK   54  A    between atoms: _168  and  _169
REMARK   55  A    between atoms: _174  and  _176
REMARK   56  A    between atoms: _176  and  _177
REMARK   57  A    between atoms: _176  and  _179
REMARK   58  A    between atoms: _179  and  _180
REMARK   59  A    between atoms: _180  and  _181
REMARK   60  A    between atoms: _184  and  _186
REMARK   61  A    between atoms: _186  and  _187
REMARK   62  A    between atoms: _186  and  _189
REMARK   63  A    between atoms: _189  and  _190
REMARK   64  A    between atoms: _193  and  _195
REMARK   65  A    between atoms: _195  and  _196
REMARK   66  A    between atoms: _195  and  _198
REMARK   67  A    between atoms: _198  and  _199
REMARK   68  A    between atoms: _200  and  ZN_450
REMARK   69  A    between atoms: _204  and  _206
REMARK   70  A    between atoms: _206  and  _207
REMARK   71  A    between atoms: _206  and  _209
REMARK   72  A    between atoms: _209  and  _210
REMARK   73  A    between atoms: _213  and  _215
REMARK   74  A    between atoms: _215  and  _216
REMARK   75  A    between atoms: _215  and  _218
REMARK   76  A    between atoms: _221  and  _223
REMARK   77  A    between atoms: _223  and  _224
REMARK   78  A    between atoms: _223  and  _226
REMARK   79  A    between atoms: _226  and  _227
REMARK   80  A    between atoms: _232  and  _234
REMARK   81  A    between atoms: _234  and  _235
REMARK   82  A    between atoms: _234  and  _237
REMARK   83  A    between atoms: _237  and  _238
REMARK   84  A    between atoms: _244  and  _246
REMARK   85  A    between atoms: _246  and  _247
REMARK   86  A    between atoms: _249  and  _251
REMARK   87  A    between atoms: _251  and  _252
REMARK   88  A    between atoms: _251  and  _254
REMARK   89  A    between atoms: _254  and  _255
REMARK   90  A    between atoms: _255  and  _256
REMARK   91  A    between atoms: _256  and  _257
REMARK   92  A    between atoms: _257  and  _258
REMARK   93  A    between atoms: _262  and  _264
REMARK   94  A    between atoms: _264  and  _265
REMARK   95  A    between atoms: _264  and  _267
REMARK   96  A    between atoms: _270  and  _272
REMARK   97  A    between atoms: _272  and  _273
REMARK   98  A    between atoms: _272  and  _275
REMARK   99  A    between atoms: _275  and  _276
REMARK  100  A    between atoms: _276  and  _277
REMARK  101  A    between atoms: _282  and  _284
REMARK  102  A    between atoms: _284  and  _285
REMARK  103  A    between atoms: _284  and  _287
REMARK  104  A    between atoms: _287  and  _288
REMARK  105  A    between atoms: _291  and  _293
REMARK  106  A    between atoms: _293  and  _294
REMARK  107  A    between atoms: _297  and  _299
REMARK  108  A    between atoms: _299  and  _300
REMARK  109  A    between atoms: _299  and  _302
REMARK  110  A    between atoms: _305  and  _307
REMARK  111  A    between atoms: _307  and  _308
REMARK  112  A    between atoms: _307  and  _310
REMARK  113  A    between atoms: _310  and  _311
REMARK  114  A    between atoms: _314  and  _316
REMARK  115  A    between atoms: _316  and  _317
REMARK  116  A    between atoms: _319  and  _321
REMARK  117  A    between atoms: _321  and  _322
REMARK  118  A    between atoms: _324  and  _326
REMARK  119  A    between atoms: _326  and  _327
REMARK  120  A    between atoms: _326  and  _329
REMARK  121  A    between atoms: _329  and  _330
REMARK  122  A    between atoms: _332  and  _334
REMARK  123  A    between atoms: _334  and  _335
REMARK  124  A    between atoms: _334  and  _337
REMARK  125  A    between atoms: _337  and  _338
REMARK  126  A    between atoms: _341  and  _343
REMARK  127  A    between atoms: _343  and  _344
REMARK  128  A    between atoms: _343  and  _346
REMARK  129  A    between atoms: _346  and  _347
REMARK  130  A    between atoms: _350  and  _352
REMARK  131  A    between atoms: _352  and  _353
REMARK  132  A    between atoms: _352  and  _355
REMARK  133  A    between atoms: _355  and  _356
REMARK  134  A    between atoms: _360  and  _361
REMARK  135  A    between atoms: _367  and  _368
REMARK  136  A    between atoms: _373  and  _375
REMARK  137  A    between atoms: _375  and  _376
REMARK  138  A    between atoms: _375  and  _378
REMARK  139  A    between atoms: _378  and  _379
REMARK  140  A    between atoms: _382  and  _384
REMARK  141  A    between atoms: _384  and  _385
REMARK  142  A    between atoms: _384  and  _387
REMARK  143  A    between atoms: _387  and  _388
REMARK  144  A    between atoms: _391  and  _393
REMARK  145  A    between atoms: _393  and  _394
REMARK  146  A    between atoms: _393  and  _396
REMARK  147  A    between atoms: _398  and  _400
REMARK  148  A    between atoms: _400  and  _401
REMARK  149  A    between atoms: _400  and  _403
REMARK  150  A    between atoms: _406  and  _408
REMARK  151  A    between atoms: _408  and  _409
REMARK  152  A    between atoms: _408  and  _411
REMARK  153  A    between atoms: _411  and  _412
REMARK  154  A    between atoms: _422  and  _424
REMARK  155  A    between atoms: _424  and  _425
REMARK  156  A    between atoms: _424  and  _427
REMARK  157  A    between atoms: _427  and  _428
REMARK  158  A    between atoms: _433  and  _435
REMARK  159  A    between atoms: _435  and  _436
REMARK  160  A    between atoms: _435  and  _438
REMARK  161  A    between atoms: _438  and  _439
REMARK  162  A    between atoms: _439  and  _440
REMARK  163  A    between atoms: _440  and  _441
REMARK                            x       y       z     vdW  Elec       q    Type
REMARK                         _______ _______ _______ _____ _____    ______ ____
ROOT
ATOM      1  CB  ASN A   1      -8.248   2.598   6.841  0.00  0.00    +0.110 C 
ENDROOT
BRANCH   1   2
ATOM      2  CG  ASN A   1      -7.167   2.392   7.875  0.00  0.00    +0.221 C 
ATOM      3  OD1 ASN A   1      -7.016   1.300   8.435  0.00  0.00    -0.275 OA
ATOM      4  ND2 ASN A   1      -6.377   3.451   8.119  0.00  0.00    -0.329 N 
ATOM      5 HD21 ASN A   1      -5.599   3.372   8.804  0.00  0.00    +0.145 HD
ATOM      6 HD22 ASN A   1      -6.544   4.350   7.623  0.00  0.00    +0.145 HD
ENDBRANCH   1   2
BRANCH   1   7
ATOM      7  CA  ASN A   1      -9.014   1.302   6.505  0.00  0.00    +0.142 C 
BRANCH   7   8
ATOM      8  N   ASN A   1      -8.174   0.372   5.790  0.00  0.00    -0.239 NA
ATOM      9  H   ASN A   1      -7.597   0.716   4.996  0.00  0.00    +0.142 HD
ENDBRANCH   7   8
BRANCH   7  10
ATOM     10  C   ASN A   1     -10.212   1.691   5.674  0.00  0.00    +0.225 C 
ATOM     11  O   ASN A   1     -10.052   2.067   4.512  0.00  0.00    -0.287 OA
ENDBRANCH   7  10
ENDBRANCH   1   7
TORSDOF 4
REMARK  Name = ../refined-set-2016/3sap/3sap_pocket.pdb
REMARK  163 active torsions:
REMARK  status: ('A' for Active; 'I' for Inactive)
REMARK    1  A    between atoms: _1  and  _3
REMARK    2  A    between atoms: _3  and  _4
REMARK    3  A    between atoms: _3  and  _6
REMARK    4  A    between atoms: _6  and  _7
REMARK    5  A    between atoms: _17  and  _19
REMARK    6  A    between atoms: _19  and  _20
REMARK    7  A    between atoms: _19  and  _22
REMARK    8  A    between atoms: _22  and  _23
REMARK    9  A    between atoms: _28  and  _29
REMARK   10  A    between atoms: _31  and  _33
REMARK   11  A    between atoms: _33  and  _34
REMARK   12  A    between atoms: _33  and  _36
REMARK   13  A    between atoms: _36  and  _37
REMARK   14  A    between atoms: _43  and  _45
REMARK   15  A    between atoms: _45  and  _46
REMARK   16  A    between atoms: _45  and  _48
REMARK   17  A    between atoms: _48  and  _49
REMARK   18  A    between atoms: _52  and  _53
REMARK   19  A    between atoms: _58  and  _60
REMARK   20  A    between atoms: _60  and  _61
REMARK   21  A    between atoms: _60  and  _63
REMARK   22  A    between atoms: _63  and  _64
REMARK   23  A    between atoms: _69  and  _71
REMARK   24  A    between atoms: _71  and  _72
REMARK   25  A    between atoms: _75  and  _77
REMARK   26  A    between atoms: _77  and  _78
REMARK   27  A    between atoms: _77  and  _80
REMARK   28  A    between atoms: _80  and  _81
REMARK   29  A    between atoms: _86  and  _88
REMARK   30  A    between atoms: _88  and  _89
REMARK   31  A    between atoms: _88  and  _91
REMARK   32  A    between atoms: _91  and  _92
REMARK   33  A    between atoms: _95  and  _97
REMARK   34  A    between atoms: _97  and  _98
REMARK   35  A    between atoms: _97  and  _100
REMARK   36  A    between atoms: _100  and  _101
REMARK   37  A    between atoms: _101  and  _102
REMARK   38  A    between atoms: _107  and  _109
REMARK   39  A    between atoms: _109  and  _110
REMARK   40  A    between atoms: _109  and  _112
REMARK   41  A    between atoms: _112  and  _113
REMARK   42  A    between atoms: _119  and  _121
REMARK   43  A    between atoms: _132  and  _135
REMARK   44  A    between atoms: _135  and  _136
REMARK   45  A    between atoms: _144  and  _145
REMARK   46  A    between atoms: _153  and  _155
REMARK   47  A    between atoms: _155  and  _156
REMARK   48  A    between atoms: _155  and  _158
REMARK   49  A    between atoms: _158  and  _159
REMARK   50  A    between atoms: _159  and  _160
REMARK   51  A    between atoms: _163  and  _165
REMARK   52  A    between atoms: _165  and  _166
REMARK   53  A    between atoms: _165  and  _168
REMARK   54  A    between atoms: _168  and  _169
REMARK   55  A    between atoms: _174  and  _176
REMARK   56  A    between atoms: _176  and  _177
REMARK   57  A    between atoms: _176  and  _179
REMARK   58  A    between atoms: _179  and  _180
REMARK   59  A    between atoms: _180  and  _181
REMARK   60  A    between atoms: _184  and  _186
REMARK   61  A    between atoms: _186  and  _187
REMARK   62  A    between atoms: _186  and  _189
REMARK   63  A    between atoms: _189  and  _190
REMARK   64  A    between atoms: _193  and  _195
REMARK   65  A    between atoms: _195  and  _196
REMARK   66  A    between atoms: _195  and  _198
REMARK   67  A    between atoms: _198  and  _199
REMARK   68  A    between atoms: _200  and  ZN_450
REMARK   69  A    between atoms: _204  and  _206
REMARK   70  A    between atoms: _206  and  _207
REMARK   71  A    between atoms: _206  and  _209
REMARK   72  A    between atoms: _209  and  _210
REMARK   73  A    between atoms: _213  and  _215
REMARK   74  A    between atoms: _215  and  _216
REMARK   75  A    between atoms: _215  and  _218
REMARK   76  A    between atoms: _221  and  _223
REMARK   77  A    between atoms: _223  and  _224
REMARK   78  A    between atoms: _223  and  _226
REMARK   79  A    between atoms: _226  and  _227
REMARK   80  A    between atoms: _232  and  _234
REMARK   81  A    between atoms: _234  and  _235
REMARK   82  A    between atoms: _234  and  _237
REMARK   83  A    between atoms: _237  and  _238
REMARK   84  A    between atoms: _244  and  _246
REMARK   85  A    between atoms: _246  and  _247
REMARK   86  A    between atoms: _249  and  _251
REMARK   87  A    between atoms: _251  and  _252
REMARK   88  A    between atoms: _251  and  _254
REMARK   89  A    between atoms: _254  and  _255
REMARK   90  A    between atoms: _255  and  _256
REMARK   91  A    between atoms: _256  and  _257
REMARK   92  A    between atoms: _257  and  _258
REMARK   93  A    between atoms: _262  and  _264
REMARK   94  A    between atoms: _264  and  _265
REMARK   95  A    between atoms: _264  and  _267
REMARK   96  A    between atoms: _270  and  _272
REMARK   97  A    between atoms: _272  and  _273
REMARK   98  A    between atoms: _272  and  _275
REMARK   99  A    between atoms: _275  and  _276
REMARK  100  A    between atoms: _276  and  _277
REMARK  101  A    between atoms: _282  and  _284
REMARK  102  A    between atoms: _284  and  _285
REMARK  103  A    between atoms: _284  and  _287
REMARK  104  A    between atoms: _287  and  _288
REMARK  105  A    between atoms: _291  and  _293
REMARK  106  A    between atoms: _293  and  _294
REMARK  107  A    between atoms: _297  and  _299
REMARK  108  A    between atoms: _299  and  _300
REMARK  109  A    between atoms: _299  and  _302
REMARK  110  A    between atoms: _305  and  _307
REMARK  111  A    between atoms: _307  and  _308
REMARK  112  A    between atoms: _307  and  _310
REMARK  113  A    between atoms: _310  and  _311
REMARK  114  A    between atoms: _314  and  _316
REMARK  115  A    between atoms: _316  and  _317
REMARK  116  A    between atoms: _319  and  _321
REMARK  117  A    between atoms: _321  and  _322
REMARK  118  A    between atoms: _324  and  _326
REMARK  119  A    between atoms: _326  and  _327
REMARK  120  A    between atoms: _326  and  _329
REMARK  121  A    between atoms: _329  and  _330
REMARK  122  A    between atoms: _332  and  _334
REMARK  123  A    between atoms: _334  and  _335
REMARK  124  A    between atoms: _334  and  _337
REMARK  125  A    between atoms: _337  and  _338
REMARK  126  A    between atoms: _341  and  _343
REMARK  127  A    between atoms: _343  and  _344
REMARK  128  A    between atoms: _343  and  _346
REMARK  129  A    between atoms: _346  and  _347
REMARK  130  A    between atoms: _350  and  _352
REMARK  131  A    between atoms: _352  and  _353
REMARK  132  A    between atoms: _352  and  _355
REMARK  133  A    between atoms: _355  and  _356
REMARK  134  A    between atoms: _360  and  _361
REMARK  135  A    between atoms: _367  and  _368
REMARK  136  A    between atoms: _373  and  _375
REMARK  137  A    between atoms: _375  and  _376
REMARK  138  A    between atoms: _375  and  _378
REMARK  139  A    between atoms: _378  and  _379
REMARK  140  A    between atoms: _382  and  _384
REMARK  141  A    between atoms: _384  and  _385
REMARK  142  A    between atoms: _384  and  _387
REMARK  143  A    between atoms: _387  and  _388
REMARK  144  A    between atoms: _391  and  _393
REMARK  145  A    between atoms: _393  and  _394
REMARK  146  A    between atoms: _393  and  _396
REMARK  147  A    between atoms: _398  and  _400
REMARK  148  A    between atoms: _400  and  _401
REMARK  149  A    between atoms: _400  and  _403
REMARK  150  A    between atoms: _406  and  _408
REMARK  151  A    between atoms: _408  and  _409
REMARK  152  A    between atoms: _408  and  _411
REMARK  153  A    between atoms: _411  and  _412
REMARK  154  A    between atoms: _422  and  _424
REMARK  155  A    between atoms: _424  and  _425
REMARK  156  A    between atoms: _424  and  _427
REMARK  157  A    between atoms: _427  and  _428
REMARK  158  A    between atoms: _433  and  _435
REMARK  159  A    between atoms: _435  and  _436
REMARK  160  A    between atoms: _435  and  _438
REMARK  161  A    between atoms: _438  and  _439
REMARK  162  A    between atoms: _439  and  _440
REMARK  163  A    between atoms: _440  and  _441
REMARK                            x       y       z     vdW  Elec       q    Type
REMARK                         _______ _______ _______ _____ _____    ______ ____
ROOT
ATOM      1  C   UNK A   4     -10.013  -1.554  10.158  0.00  0.00    +0.000 C 
ATOM      2  C   UNK A   4     -10.150  -2.808  11.012  0.00  0.00    +0.000 C 
ATOM      3  O   UNK A   4     -10.844  -2.800  12.056  0.00  0.00    +0.000 OA
ATOM      4  N   VAL A   5      -9.461  -3.849  10.580  0.00  0.00    +0.000 N 
ATOM      5  CA  VAL A   5      -9.483  -5.130  11.261  0.00  0.00    +0.000 C 
ATOM      6  C   VAL A   5      -8.024  -5.588  11.470  0.00  0.00    +0.000 C 
ATOM      7  N   UNK A   6      -7.875  -6.575  12.344  0.00  0.00    +0.000 N 
ATOM      8  H   UNK A   6      -8.700  -6.845  12.917  0.00  0.00    +0.000 HD
ATOM      9  C   UNK A   6      -6.615  -7.315  12.557  0.00  0.00    +0.000 C 
ATOM     10  C   UNK A   6      -6.061  -7.067  13.955  0.00  0.00    +0.000 C 
ATOM     11  C   UNK A   6      -5.749  -5.628  14.222  0.00  0.00    +0.000 A 
ATOM     12  C   UNK A   6      -6.535  -4.603  14.630  0.00  0.00    +0.000 A 
ATOM     13  N   UNK A   6      -5.746  -3.480  14.678  0.00  0.00    +0.000 N 
ATOM     14 ZN   UNK A   6      -6.586  -1.701  15.261  0.00  0.00    +0.000 Zn
ATOM     15  N   UNK A   4      -7.301  -0.800  13.625  0.00  0.00    +0.000 N 
ATOM     16  C   UNK A   4      -7.760   0.422  13.407  0.00  0.00    +0.000 A 
ATOM     17  N   UNK A   4      -8.240   0.476  12.176  0.00  0.00    +0.000 NA
ATOM     18  C   UNK A   4      -8.066  -0.753  11.566  0.00  0.00    +0.000 A 
ATOM     19  C   UNK A   4      -7.489  -1.555  12.488  0.00  0.00    +0.000 A 
ATOM     20  C   UNK A   6      -4.510  -3.808  14.333  0.00  0.00    +0.000 A 
ATOM     21  N   UNK A   6      -4.498  -5.093  14.010  0.00  0.00    +0.000 NA
ATOM     22  O   VAL A   5      -7.078  -5.104  10.823  0.00  0.00    +0.000 OA
ATOM     23  H   VAL A   5      -8.883  -3.747   9.722  0.00  0.00    +0.000 HD
ATOM     24  C   UNK A   4      -8.555  -1.047  10.186  0.00  0.00    +0.000 C 
ENDROOT
BRANCH  14  25
ATOM     25  N   UNK A   6      -8.028  -2.489  16.555  0.00  0.00    +0.000 N 
ATOM     26  C   UNK A   6      -7.751  -3.381  17.491  0.00  0.00    +0.000 A 
ATOM     27  N   UNK A   6      -8.875  -3.701  18.107  0.00  0.00    +0.000 NA
ATOM     28  C   UNK A   6      -9.907  -2.977  17.555  0.00  0.00    +0.000 A 
ATOM     29  C   UNK A   6      -9.375  -2.208  16.576  0.00  0.00    +0.000 A 
BRANCH  29  30
ATOM     30  C   UNK A   6     -10.028  -1.252  15.625  0.00  0.00    +0.000 C 
BRANCH  30  31
ATOM     31  C   UNK A   6     -11.542  -1.486  15.512  0.00  0.00    +0.000 C 
BRANCH  31  32
ATOM     32  C   UNK A   6     -12.250  -0.320  14.833  0.00  0.00    +0.000 C 
ATOM     33  N   UNK A   4     -13.251   0.234  15.498  0.00  0.00    +0.000 N 
ATOM     34  H   UNK A   4     -13.576  -0.213  16.379  0.00  0.00    +0.000 HD
ATOM     35  O   UNK A   6     -11.902   0.025  13.705  0.00  0.00    +0.000 OA
BRANCH  33  36
ATOM     36  C   UNK A   4     -13.924   1.466  15.032  0.00  0.00    +0.000 C 
BRANCH  36  37
ATOM     37  C   UNK A   4     -13.299   2.625  15.795  0.00  0.00    +0.000 C 
ATOM     38  O   UNK A   4     -13.456   2.731  17.017  0.00  0.00    +0.000 OA
ATOM     39  N   VAL A   5     -12.547   3.433  15.066  0.00  0.00    +0.000 N 
ATOM     40  H   VAL A   5     -12.565   3.352  14.029  0.00  0.00    +0.000 HD
BRANCH  39  41
ATOM     41  CA  VAL A   5     -11.682   4.450  15.701  0.00  0.00    +0.000 C 
BRANCH  41  42
ATOM     42  C   VAL A   5     -12.370   5.801  15.751  0.00  0.00    +0.000 C 
ATOM     43  N   UNK A   6     -12.464   6.381  16.959  0.00  0.00    +0.000 N 
ATOM     44  H   UNK A   6     -12.020   5.925  17.781  0.00  0.00    +0.000 HD
ATOM     45  O   VAL A   5     -12.794   6.323  14.707  0.00  0.00    +0.000 OA
BRANCH  43  46
ATOM     46  C   UNK A   6     -13.187   7.655  17.138  0.00  0.00    +0.000 C 
BRANCH  46  47
ATOM     47  C   UNK A   6     -12.303   8.658  17.888  0.00  0.00    +0.000 C 
ATOM     48  O   UNK A   6     -11.510   8.282  18.746  0.00  0.00    +0.000 OA
ENDBRANCH  46  47
BRANCH  46  49
ATOM     49  C   UNK A   6     -14.494   7.516  17.910  0.00  0.00    +0.000 C 
BRANCH  49  50
ATOM     50  C   UNK A   6     -15.376   6.376  17.490  0.00  0.00    +0.000 A 
ATOM     51  N   UNK A   6     -15.072   5.053  17.738  0.00  0.00    +0.000 NA
ATOM     52  C   UNK A   6     -16.061   4.285  17.298  0.00  0.00    +0.000 A 
ATOM     53  N   UNK A   6     -17.009   5.064  16.804  0.00  0.00    +0.000 NA
ATOM     54  C   UNK A   6     -16.609   6.377  16.916  0.00  0.00    +0.000 A 
ENDBRANCH  49  50
ENDBRANCH  46  49
ENDBRANCH  43  46
ENDBRANCH  41  42
BRANCH  41  55
ATOM     55  CB  VAL A   5     -10.317   4.565  14.959  0.00  0.00    +0.000 C 
ATOM     56  CG2 VAL A   5      -9.387   5.602  15.633  0.00  0.00    +0.000 C 
ATOM     57  CG1 VAL A   5      -9.631   3.205  14.809  0.00  0.00    +0.000 C 
ENDBRANCH  41  55
ENDBRANCH  39  41
ENDBRANCH  36  37
BRANCH  36  58
ATOM     58  C   UNK A   4     -15.411   1.391  15.272  0.00  0.00    +0.000 C 
BRANCH  58  59
ATOM     59  C   UNK A   4     -16.047   0.322  14.333  0.00  0.00    +0.000 C 
ATOM     60  C   UNK A   4     -16.814  -0.713  15.095  0.00  0.00    +0.000 C 
ATOM     61  C   UNK A   4     -16.886   0.986  13.208  0.00  0.00    +0.000 C 
ENDBRANCH  58  59
ENDBRANCH  36  58
ENDBRANCH  33  36
ENDBRANCH  31  32
BRANCH  31  62
ATOM     62  N   UNK A   6     -11.782  -2.689  14.751  0.00  0.00    +0.000 N 
ATOM     63  C   LEU A   2     -12.386  -3.759  15.274  0.00  0.00    +0.000 C 
ATOM     64  O   LEU A   2     -12.807  -3.799  16.438  0.00  0.00    +0.000 OA
ATOM     65  H   UNK A   6     -11.473  -2.724  13.759  0.00  0.00    +0.000 HD
BRANCH  63  66
ATOM     66  CA  LEU A   2     -12.620  -4.931  14.287  0.00  0.00    +0.000 C 
BRANCH  66  67
ATOM     67  N   LEU A   2     -12.253  -6.211  14.869  0.00  0.00    +0.000 N 
ATOM     68  H   LEU A   2     -12.988  -6.745  15.375  0.00  0.00    +0.000 HD
ATOM     69  C   GLU A   1     -11.046  -6.737  14.796  0.00  0.00    +0.000 C 
ATOM     70  O   GLU A   1     -10.143  -6.291  14.124  0.00  0.00    +0.000 OA
BRANCH  69  71
ATOM     71  CA  GLU A   1     -10.860  -8.008  15.610  0.00  0.00    +0.000 C 
BRANCH  71  72
ATOM     72  N   GLU A   1     -10.298  -9.050  14.749  0.00  0.00    +0.000 NA
ATOM     73  H   GLU A   1      -9.627  -8.796  13.996  0.00  0.00    +0.000 HD
ENDBRANCH  71  72
BRANCH  71  74
ATOM     74  CB  GLU A   1      -9.943  -7.767  16.827  0.00  0.00    +0.000 C 
BRANCH  74  75
ATOM     75  CG  GLU A   1     -10.422  -6.734  17.858  0.00  0.00    +0.000 C 
BRANCH  75  76
ATOM     76  CD  GLU A   1      -9.523  -6.714  19.090  0.00  0.00    +0.000 C 
ATOM     77  OE2 GLU A   1      -9.502  -5.649  19.771  0.00  0.00    +0.000 OA
ATOM     78  OE1 GLU A   1      -8.881  -7.769  19.412  0.00  0.00    +0.000 OA
ENDBRANCH  75  76
ENDBRANCH  74  75
ENDBRANCH  71  74
ENDBRANCH  69  71
ENDBRANCH  66  67
BRANCH  66  79
ATOM     79  CB  LEU A   2     -14.102  -4.980  13.889  0.00  0.00    +0.000 C 
BRANCH  79  80
ATOM     80  CG  LEU A   2     -14.836  -3.692  13.484  0.00  0.00    +0.000 C 
ATOM     81  CD2 LEU A   2     -16.332  -4.041  13.340  0.00  0.00    +0.000 C 
ATOM     82  CD1 LEU A   2     -14.300  -3.161  12.183  0.00  0.00    +0.000 C 
ENDBRANCH  79  80
ENDBRANCH  66  79
ENDBRANCH  63  66
ENDBRANCH  31  62
ENDBRANCH  30  31
ENDBRANCH  29  30
ENDBRANCH  14  25
BRANCH   1  84
ATOM     83  C   UNK A   3     -11.449   0.405  10.098  0.00  0.00    +0.000 C 
ATOM     84  N   UNK A   4     -10.915  -0.605  10.767  0.00  0.00    +0.000 N 
ATOM     85  H   UNK A   4     -11.155  -0.720  11.772  0.00  0.00    +0.000 HD
ATOM     86  O   UNK A   3     -11.198   0.602   8.918  0.00  0.00    +0.000 OA
BRANCH  83  87
ATOM     87  C   UNK A   3     -12.402   1.309  10.899  0.00  0.00    +0.000 C 
BRANCH  87  90
ATOM     88  C   LEU A   2     -12.331   3.719  11.046  0.00  0.00    +0.000 C 
ATOM     89  O   LEU A   2     -12.354   3.747  12.263  0.00  0.00    +0.000 OA
ATOM     90  N   UNK A   3     -12.553   2.632  10.321  0.00  0.00    +0.000 N 
ATOM     91  H   UNK A   3     -12.839   2.728   9.326  0.00  0.00    +0.000 HD
BRANCH  88  92
ATOM     92  CA  LEU A   2     -12.090   5.001  10.247  0.00  0.00    +0.000 C 
BRANCH  92  94
ATOM     93  C   GLU A   1     -12.565   7.359  10.594  0.00  0.00    +0.000 C 
ATOM     94  N   LEU A   2     -12.343   6.145  11.120  0.00  0.00    +0.000 N 
ATOM     95  H   LEU A   2     -12.351   6.018  12.152  0.00  0.00    +0.000 HD
ATOM     96  O   GLU A   1     -12.556   7.552   9.375  0.00  0.00    +0.000 OA
BRANCH  93  97
ATOM     97  CA  GLU A   1     -12.823   8.525  11.564  0.00  0.00    +0.000 C 
BRANCH  97  98
ATOM     98  CB  GLU A   1     -11.499   9.197  12.051  0.00  0.00    +0.000 C 
ATOM     99  CG2 GLU A   1     -10.746   8.335  13.106  0.00  0.00    +0.000 C 
BRANCH  98 100
ATOM    100  CG1 GLU A   1     -10.596   9.540  10.856  0.00  0.00    +0.000 C 
ATOM    101  CD1 GLU A   1      -9.417  10.448  11.230  0.00  0.00    +0.000 C 
ENDBRANCH  98 100
ENDBRANCH  97  98
BRANCH  97 102
ATOM    102  N   GLU A   1     -13.711   8.185  12.674  0.00  0.00    +0.000 NA
ATOM    103  H   GLU A   1     -13.348   7.613  13.463  0.00  0.00    +0.000 HD
ENDBRANCH  97 102
ENDBRANCH  93  97
ENDBRANCH  92  94
BRANCH  92 104
ATOM    104  CB  LEU A   2     -10.630   4.996   9.729  0.00  0.00    +0.000 C 
BRANCH 104 105
ATOM    105  CG  LEU A   2      -9.559   5.149  10.847  0.00  0.00    +0.000 C 
BRANCH 105 106
ATOM    106  CD  LEU A   2      -8.833   3.835  11.193  0.00  0.00    +0.000 C 
ATOM    107  NE2 LEU A   2      -7.607   3.950  11.688  0.00  0.00    +0.000 N 
ATOM    108 HE21 LEU A   2      -7.065   3.098  11.937  0.00  0.00    +0.000 HD
ATOM    109 HE22 LEU A   2      -7.188   4.892  11.827  0.00  0.00    +0.000 HD
ATOM    110  OE1 LEU A   2      -9.370   2.751  11.011  0.00  0.00    +0.000 OA
ENDBRANCH 105 106
ENDBRANCH 104 105
ENDBRANCH  92 104
ENDBRANCH  88  92
ENDBRANCH  87  90
BRANCH  87 111
ATOM    111  C   UNK A   3     -13.768   0.654  11.199  0.00  0.00    +0.000 C 
BRANCH 111 112
ATOM    112  C   UNK A   3     -14.510   0.194   9.967  0.00  0.00    +0.000 A 
ATOM    113  C   UNK A   3     -15.602   0.926   9.506  0.00  0.00    +0.000 A 
ATOM    114  C   UNK A   3     -16.315   0.479   8.343  0.00  0.00    +0.000 A 
ATOM    115  C   UNK A   3     -15.915  -0.668   7.662  0.00  0.00    +0.000 A 
ATOM    116  C   UNK A   3     -14.819  -1.414   8.136  0.00  0.00    +0.000 A 
ATOM    117  C   UNK A   3     -14.131  -0.971   9.282  0.00  0.00    +0.000 A 
ENDBRANCH 111 112
ENDBRANCH  87 111
ENDBRANCH  83  87
ENDBRANCH   1  84
BRANCH   9 118
ATOM    118  C   UNK A   6      -7.018  -8.755  12.436  0.00  0.00    +0.000 C 
ATOM    119  O   UNK A   6      -8.052  -9.108  12.957  0.00  0.00    +0.000 OA
ENDBRANCH   9 118
BRANCH   5 120
ATOM    120  CB  VAL A   5     -10.194  -6.199  10.413  0.00  0.00    +0.000 C 
BRANCH 120 121
ATOM    121  CG  VAL A   5     -11.646  -5.895  10.070  0.00  0.00    +0.000 A 
ATOM    122  CD2 VAL A   5     -12.676  -6.503  10.786  0.00  0.00    +0.000 A 
ATOM    123  CE2 VAL A   5     -14.026  -6.283  10.451  0.00  0.00    +0.000 A 
ATOM    124  CZ  VAL A   5     -14.335  -5.429   9.341  0.00  0.00    +0.000 A 
ATOM    125  CE1 VAL A   5     -13.298  -4.810   8.629  0.00  0.00    +0.000 A 
ATOM    126  CD1 VAL A   5     -11.963  -5.056   8.992  0.00  0.00    +0.000 A 
ENDBRANCH 120 121
ENDBRANCH   5 120
TORSDOF 42
REMARK  Name = ../refined-set-2016/3sap/3sap_pocket.pdb
REMARK  163 active torsions:
REMARK  status: ('A' for Active; 'I' for Inactive)
REMARK    1  A    between atoms: _1  and  _3
REMARK    2  A    between atoms: _3  and  _4
REMARK    3  A    between atoms: _3  and  _6
REMARK    4  A    between atoms: _6  and  _7
REMARK    5  A    between atoms: _17  and  _19
REMARK    6  A    between atoms: _19  and  _20
REMARK    7  A    between atoms: _19  and  _22
REMARK    8  A    between atoms: _22  and  _23
REMARK    9  A    between atoms: _28  and  _29
REMARK   10  A    between atoms: _31  and  _33
REMARK   11  A    between atoms: _33  and  _34
REMARK   12  A    between atoms: _33  and  _36
REMARK   13  A    between atoms: _36  and  _37
REMARK   14  A    between atoms: _43  and  _45
REMARK   15  A    between atoms: _45  and  _46
REMARK   16  A    between atoms: _45  and  _48
REMARK   17  A    between atoms: _48  and  _49
REMARK   18  A    between atoms: _52  and  _53
REMARK   19  A    between atoms: _58  and  _60
REMARK   20  A    between atoms: _60  and  _61
REMARK   21  A    between atoms: _60  and  _63
REMARK   22  A    between atoms: _63  and  _64
REMARK   23  A    between atoms: _69  and  _71
REMARK   24  A    between atoms: _71  and  _72
REMARK   25  A    between atoms: _75  and  _77
REMARK   26  A    between atoms: _77  and  _78
REMARK   27  A    between atoms: _77  and  _80
REMARK   28  A    between atoms: _80  and  _81
REMARK   29  A    between atoms: _86  and  _88
REMARK   30  A    between atoms: _88  and  _89
REMARK   31  A    between atoms: _88  and  _91
REMARK   32  A    between atoms: _91  and  _92
REMARK   33  A    between atoms: _95  and  _97
REMARK   34  A    between atoms: _97  and  _98
REMARK   35  A    between atoms: _97  and  _100
REMARK   36  A    between atoms: _100  and  _101
REMARK   37  A    between atoms: _101  and  _102
REMARK   38  A    between atoms: _107  and  _109
REMARK   39  A    between atoms: _109  and  _110
REMARK   40  A    between atoms: _109  and  _112
REMARK   41  A    between atoms: _112  and  _113
REMARK   42  A    between atoms: _119  and  _121
REMARK   43  A    between atoms: _132  and  _135
REMARK   44  A    between atoms: _135  and  _136
REMARK   45  A    between atoms: _144  and  _145
REMARK   46  A    between atoms: _153  and  _155
REMARK   47  A    between atoms: _155  and  _156
REMARK   48  A    between atoms: _155  and  _158
REMARK   49  A    between atoms: _158  and  _159
REMARK   50  A    between atoms: _159  and  _160
REMARK   51  A    between atoms: _163  and  _165
REMARK   52  A    between atoms: _165  and  _166
REMARK   53  A    between atoms: _165  and  _168
REMARK   54  A    between atoms: _168  and  _169
REMARK   55  A    between atoms: _174  and  _176
REMARK   56  A    between atoms: _176  and  _177
REMARK   57  A    between atoms: _176  and  _179
REMARK   58  A    between atoms: _179  and  _180
REMARK   59  A    between atoms: _180  and  _181
REMARK   60  A    between atoms: _184  and  _186
REMARK   61  A    between atoms: _186  and  _187
REMARK   62  A    between atoms: _186  and  _189
REMARK   63  A    between atoms: _189  and  _190
REMARK   64  A    between atoms: _193  and  _195
REMARK   65  A    between atoms: _195  and  _196
REMARK   66  A    between atoms: _195  and  _198
REMARK   67  A    between atoms: _198  and  _199
REMARK   68  A    between atoms: _200  and  ZN_450
REMARK   69  A    between atoms: _204  and  _206
REMARK   70  A    between atoms: _206  and  _207
REMARK   71  A    between atoms: _206  and  _209
REMARK   72  A    between atoms: _209  and  _210
REMARK   73  A    between atoms: _213  and  _215
REMARK   74  A    between atoms: _215  and  _216
REMARK   75  A    between atoms: _215  and  _218
REMARK   76  A    between atoms: _221  and  _223
REMARK   77  A    between atoms: _223  and  _224
REMARK   78  A    between atoms: _223  and  _226
REMARK   79  A    between atoms: _226  and  _227
REMARK   80  A    between atoms: _232  and  _234
REMARK   81  A    between atoms: _234  and  _235
REMARK   82  A    between atoms: _234  and  _237
REMARK   83  A    between atoms: _237  and  _238
REMARK   84  A    between atoms: _244  and  _246
REMARK   85  A    between atoms: _246  and  _247
REMARK   86  A    between atoms: _249  and  _251
REMARK   87  A    between atoms: _251  and  _252
REMARK   88  A    between atoms: _251  and  _254
REMARK   89  A    between atoms: _254  and  _255
REMARK   90  A    between atoms: _255  and  _256
REMARK   91  A    between atoms: _256  and  _257
REMARK   92  A    between atoms: _257  and  _258
REMARK   93  A    between atoms: _262  and  _264
REMARK   94  A    between atoms: _264  and  _265
REMARK   95  A    between atoms: _264  and  _267
REMARK   96  A    between atoms: _270  and  _272
REMARK   97  A    between atoms: _272  and  _273
REMARK   98  A    between atoms: _272  and  _275
REMARK   99  A    between atoms: _275  and  _276
REMARK  100  A    between atoms: _276  and  _277
REMARK  101  A    between atoms: _282  and  _284
REMARK  102  A    between atoms: _284  and  _285
REMARK  103  A    between atoms: _284  and  _287
REMARK  104  A    between atoms: _287  and  _288
REMARK  105  A    between atoms: _291  and  _293
REMARK  106  A    between atoms: _293  and  _294
REMARK  107  A    between atoms: _297  and  _299
REMARK  108  A    between atoms: _299  and  _300
REMARK  109  A    between atoms: _299  and  _302
REMARK  110  A    between atoms: _305  and  _307
REMARK  111  A    between atoms: _307  and  _308
REMARK  112  A    between atoms: _307  and  _310
REMARK  113  A    between atoms: _310  and  _311
REMARK  114  A    between atoms: _314  and  _316
REMARK  115  A    between atoms: _316  and  _317
REMARK  116  A    between atoms: _319  and  _321
REMARK  117  A    between atoms: _321  and  _322
REMARK  118  A    between atoms: _324  and  _326
REMARK  119  A    between atoms: _326  and  _327
REMARK  120  A    between atoms: _326  and  _329
REMARK  121  A    between atoms: _329  and  _330
REMARK  122  A    between atoms: _332  and  _334
REMARK  123  A    between atoms: _334  and  _335
REMARK  124  A    between atoms: _334  and  _337
REMARK  125  A    between atoms: _337  and  _338
REMARK  126  A    between atoms: _341  and  _343
REMARK  127  A    between atoms: _343  and  _344
REMARK  128  A    between atoms: _343  and  _346
REMARK  129  A    between atoms: _346  and  _347
REMARK  130  A    between atoms: _350  and  _352
REMARK  131  A    between atoms: _352  and  _353
REMARK  132  A    between atoms: _352  and  _355
REMARK  133  A    between atoms: _355  and  _356
REMARK  134  A    between atoms: _360  and  _361
REMARK  135  A    between atoms: _367  and  _368
REMARK  136  A    between atoms: _373  and  _375
REMARK  137  A    between atoms: _375  and  _376
REMARK  138  A    between atoms: _375  and  _378
REMARK  139  A    between atoms: _378  and  _379
REMARK  140  A    between atoms: _382  and  _384
REMARK  141  A    between atoms: _384  and  _385
REMARK  142  A    between atoms: _384  and  _387
REMARK  143  A    between atoms: _387  and  _388
REMARK  144  A    between atoms: _391  and  _393
REMARK  145  A    between atoms: _393  and  _394
REMARK  146  A    between atoms: _393  and  _396
REMARK  147  A    between atoms: _398  and  _400
REMARK  148  A    between atoms: _400  and  _401
REMARK  149  A    between atoms: _400  and  _403
REMARK  150  A    between atoms: _406  and  _408
REMARK  151  A    between atoms: _408  and  _409
REMARK  152  A    between atoms: _408  and  _411
REMARK  153  A    between atoms: _411  and  _412
REMARK  154  A    between atoms: _422  and  _424
REMARK  155  A    between atoms: _424  and  _425
REMARK  156  A    between atoms: _424  and  _427
REMARK  157  A    between atoms: _427  and  _428
REMARK  158  A    between atoms: _433  and  _435
REMARK  159  A    between atoms: _435  and  _436
REMARK  160  A    between atoms: _435  and  _438
REMARK  161  A    between atoms: _438  and  _439
REMARK  162  A    between atoms: _439  and  _440
REMARK  163  A    between atoms: _440  and  _441
REMARK                            x       y       z     vdW  Elec       q    Type
REMARK                         _______ _______ _______ _____ _____    ______ ____
ROOT
ATOM      1  C   GLU A   1      -5.759  -8.521  20.992  0.00  0.00    +0.238 C 
ATOM      2  O   GLU A   1      -4.992  -9.129  21.760  0.00  0.00    -0.274 OA
ATOM      3  N   HIS A   2      -6.939  -8.051  21.408  0.00  0.00    -0.298 N 
ATOM      4  H   HIS A   2      -7.510  -7.430  20.799  0.00  0.00    +0.150 HD
ENDROOT
BRANCH   1   5
ATOM      5  CA  GLU A   1      -5.423  -8.344  19.518  0.00  0.00    +0.145 C 
BRANCH   5   6
ATOM      6  N   GLU A   1      -6.454  -9.027  18.737  0.00  0.00    -0.238 NA
ATOM      7  H   GLU A   1      -7.316  -8.506  18.477  0.00  0.00    +0.142 HD
ENDBRANCH   5   6
BRANCH   5   8
ATOM      8  CB  GLU A   1      -5.354  -6.855  19.099  0.00  0.00    +0.038 C 
BRANCH   8   9
ATOM      9  CG  GLU A   1      -4.913  -6.719  17.628  0.00  0.00    +0.116 C 
BRANCH   9  10
ATOM     10  CD  GLU A   1      -4.273  -5.421  17.332  0.00  0.00    +0.365 C 
ATOM     11  OE2 GLU A   1      -4.903  -4.365  17.590  0.00  0.00    -0.246 OA
ATOM     12  OE1 GLU A   1      -3.113  -5.456  16.868  0.00  0.00    -0.246 OA
ENDBRANCH   9  10
ENDBRANCH   8   9
ENDBRANCH   5   8
ENDBRANCH   1   5
BRANCH   3  13
ATOM     13  CA  HIS A   2      -7.401  -8.425  22.720  0.00  0.00    +0.143 C 
BRANCH  13  14
ATOM     14  C   HIS A   2      -7.704  -9.897  22.766  0.00  0.00    +0.227 C 
ATOM     15  O   HIS A   2      -8.044 -10.508  21.734  0.00  0.00    -0.286 OA
ENDBRANCH  13  14
BRANCH  13  16
ATOM     16  CB  HIS A   2      -8.636  -7.621  23.100  0.00  0.00    +0.075 C 
BRANCH  16  17
ATOM     17  CG  HIS A   2      -8.333  -6.177  23.264  0.00  0.00    +0.082 A 
ATOM     18  CD2 HIS A   2      -7.905  -5.475  24.339  0.00  0.00    +0.115 A 
ATOM     19  NE2 HIS A   2      -7.694  -4.184  23.920  0.00  0.00    -0.221 NA
ATOM     20  CE1 HIS A   2      -7.969  -4.099  22.628  0.00  0.00    +0.199 A 
ATOM     21  ND1 HIS A   2      -8.338  -5.299  22.204  0.00  0.00    -0.227 NA
ENDBRANCH  16  17
ENDBRANCH  13  16
ENDBRANCH   3  13
TORSDOF 9
REMARK  Name = ../refined-set-2016/3sap/3sap_pocket.pdb
REMARK  163 active torsions:
REMARK  status: ('A' for Active; 'I' for Inactive)
REMARK    1  A    between atoms: _1  and  _3
REMARK    2  A    between atoms: _3  and  _4
REMARK    3  A    between atoms: _3  and  _6
REMARK    4  A    between atoms: _6  and  _7
REMARK    5  A    between atoms: _17  and  _19
REMARK    6  A    between atoms: _19  and  _20
REMARK    7  A    between atoms: _19  and  _22
REMARK    8  A    between atoms: _22  and  _23
REMARK    9  A    between atoms: _28  and  _29
REMARK   10  A    between atoms: _31  and  _33
REMARK   11  A    between atoms: _33  and  _34
REMARK   12  A    between atoms: _33  and  _36
REMARK   13  A    between atoms: _36  and  _37
REMARK   14  A    between atoms: _43  and  _45
REMARK   15  A    between atoms: _45  and  _46
REMARK   16  A    between atoms: _45  and  _48
REMARK   17  A    between atoms: _48  and  _49
REMARK   18  A    between atoms: _52  and  _53
REMARK   19  A    between atoms: _58  and  _60
REMARK   20  A    between atoms: _60  and  _61
REMARK   21  A    between atoms: _60  and  _63
REMARK   22  A    between atoms: _63  and  _64
REMARK   23  A    between atoms: _69  and  _71
REMARK   24  A    between atoms: _71  and  _72
REMARK   25  A    between atoms: _75  and  _77
REMARK   26  A    between atoms: _77  and  _78
REMARK   27  A    between atoms: _77  and  _80
REMARK   28  A    between atoms: _80  and  _81
REMARK   29  A    between atoms: _86  and  _88
REMARK   30  A    between atoms: _88  and  _89
REMARK   31  A    between atoms: _88  and  _91
REMARK   32  A    between atoms: _91  and  _92
REMARK   33  A    between atoms: _95  and  _97
REMARK   34  A    between atoms: _97  and  _98
REMARK   35  A    between atoms: _97  and  _100
REMARK   36  A    between atoms: _100  and  _101
REMARK   37  A    between atoms: _101  and  _102
REMARK   38  A    between atoms: _107  and  _109
REMARK   39  A    between atoms: _109  and  _110
REMARK   40  A    between atoms: _109  and  _112
REMARK   41  A    between atoms: _112  and  _113
REMARK   42  A    between atoms: _119  and  _121
REMARK   43  A    between atoms: _132  and  _135
REMARK   44  A    between atoms: _135  and  _136
REMARK   45  A    between atoms: _144  and  _145
REMARK   46  A    between atoms: _153  and  _155
REMARK   47  A    between atoms: _155  and  _156
REMARK   48  A    between atoms: _155  and  _158
REMARK   49  A    between atoms: _158  and  _159
REMARK   50  A    between atoms: _159  and  _160
REMARK   51  A    between atoms: _163  and  _165
REMARK   52  A    between atoms: _165  and  _166
REMARK   53  A    between atoms: _165  and  _168
REMARK   54  A    between atoms: _168  and  _169
REMARK   55  A    between atoms: _174  and  _176
REMARK   56  A    between atoms: _176  and  _177
REMARK   57  A    between atoms: _176  and  _179
REMARK   58  A    between atoms: _179  and  _180
REMARK   59  A    between atoms: _180  and  _181
REMARK   60  A    between atoms: _184  and  _186
REMARK   61  A    between atoms: _186  and  _187
REMARK   62  A    between atoms: _186  and  _189
REMARK   63  A    between atoms: _189  and  _190
REMARK   64  A    between atoms: _193  and  _195
REMARK   65  A    between atoms: _195  and  _196
REMARK   66  A    between atoms: _195  and  _198
REMARK   67  A    between atoms: _198  and  _199
REMARK   68  A    between atoms: _200  and  ZN_450
REMARK   69  A    between atoms: _204  and  _206
REMARK   70  A    between atoms: _206  and  _207
REMARK   71  A    between atoms: _206  and  _209
REMARK   72  A    between atoms: _209  and  _210
REMARK   73  A    between atoms: _213  and  _215
REMARK   74  A    between atoms: _215  and  _216
REMARK   75  A    between atoms: _215  and  _218
REMARK   76  A    between atoms: _221  and  _223
REMARK   77  A    between atoms: _223  and  _224
REMARK   78  A    between atoms: _223  and  _226
REMARK   79  A    between atoms: _226  and  _227
REMARK   80  A    between atoms: _232  and  _234
REMARK   81  A    between atoms: _234  and  _235
REMARK   82  A    between atoms: _234  and  _237
REMARK   83  A    between atoms: _237  and  _238
REMARK   84  A    between atoms: _244  and  _246
REMARK   85  A    between atoms: _246  and  _247
REMARK   86  A    between atoms: _249  and  _251
REMARK   87  A    between atoms: _251  and  _252
REMARK   88  A    between atoms: _251  and  _254
REMARK   89  A    between atoms: _254  and  _255
REMARK   90  A    between atoms: _255  and  _256
REMARK   91  A    between atoms: _256  and  _257
REMARK   92  A    between atoms: _257  and  _258
REMARK   93  A    between atoms: _262  and  _264
REMARK   94  A    between atoms: _264  and  _265
REMARK   95  A    between atoms: _264  and  _267
REMARK   96  A    between atoms: _270  and  _272
REMARK   97  A    between atoms: _272  and  _273
REMARK   98  A    between atoms: _272  and  _275
REMARK   99  A    between atoms: _275  and  _276
REMARK  100  A    between atoms: _276  and  _277
REMARK  101  A    between atoms: _282  and  _284
REMARK  102  A    between atoms: _284  and  _285
REMARK  103  A    between atoms: _284  and  _287
REMARK  104  A    between atoms: _287  and  _288
REMARK  105  A    between atoms: _291  and  _293
REMARK  106  A    between atoms: _293  and  _294
REMARK  107  A    between atoms: _297  and  _299
REMARK  108  A    between atoms: _299  and  _300
REMARK  109  A    between atoms: _299  and  _302
REMARK  110  A    between atoms: _305  and  _307
REMARK  111  A    between atoms: _307  and  _308
REMARK  112  A    between atoms: _307  and  _310
REMARK  113  A    between atoms: _310  and  _311
REMARK  114  A    between atoms: _314  and  _316
REMARK  115  A    between atoms: _316  and  _317
REMARK  116  A    between atoms: _319  and  _321
REMARK  117  A    between atoms: _321  and  _322
REMARK  118  A    between atoms: _324  and  _326
REMARK  119  A    between atoms: _326  and  _327
REMARK  120  A    between atoms: _326  and  _329
REMARK  121  A    between atoms: _329  and  _330
REMARK  122  A    between atoms: _332  and  _334
REMARK  123  A    between atoms: _334  and  _335
REMARK  124  A    between atoms: _334  and  _337
REMARK  125  A    between atoms: _337  and  _338
REMARK  126  A    between atoms: _341  and  _343
REMARK  127  A    between atoms: _343  and  _344
REMARK  128  A    between atoms: _343  and  _346
REMARK  129  A    between atoms: _346  and  _347
REMARK  130  A    between atoms: _350  and  _352
REMARK  131  A    between atoms: _352  and  _353
REMARK  132  A    between atoms: _352  and  _355
REMARK  133  A    between atoms: _355  and  _356
REMARK  134  A    between atoms: _360  and  _361
REMARK  135  A    between atoms: _367  and  _368
REMARK  136  A    between atoms: _373  and  _375
REMARK  137  A    between atoms: _375  and  _376
REMARK  138  A    between atoms: _375  and  _378
REMARK  139  A    between atoms: _378  and  _379
REMARK  140  A    between atoms: _382  and  _384
REMARK  141  A    between atoms: _384  and  _385
REMARK  142  A    between atoms: _384  and  _387
REMARK  143  A    between atoms: _387  and  _388
REMARK  144  A    between atoms: _391  and  _393
REMARK  145  A    between atoms: _393  and  _394
REMARK  146  A    between atoms: _393  and  _396
REMARK  147  A    between atoms: _398  and  _400
REMARK  148  A    between atoms: _400  and  _401
REMARK  149  A    between atoms: _400  and  _403
REMARK  150  A    between atoms: _406  and  _408
REMARK  151  A    between atoms: _408  and  _409
REMARK  152  A    between atoms: _408  and  _411
REMARK  153  A    between atoms: _411  and  _412
REMARK  154  A    between atoms: _422  and  _424
REMARK  155  A    between atoms: _424  and  _425
REMARK  156  A    between atoms: _424  and  _427
REMARK  157  A    between atoms: _427  and  _428
REMARK  158  A    between atoms: _433  and  _435
REMARK  159  A    between atoms: _435  and  _436
REMARK  160  A    between atoms: _435  and  _438
REMARK  161  A    between atoms: _438  and  _439
REMARK  162  A    between atoms: _439  and  _440
REMARK  163  A    between atoms: _440  and  _441
REMARK                            x       y       z     vdW  Elec       q    Type
REMARK                         _______ _______ _______ _____ _____    ______ ____
ROOT
ATOM      1  CA  GLY A   2      -3.906  14.542  14.968  0.00  0.00    +0.176 C 
ENDROOT
BRANCH   1   4
ATOM      2  C   PHE A   1      -6.097  13.571  15.425  0.00  0.00    +0.239 C 
ATOM      3  O   PHE A   1      -5.689  13.002  16.426  0.00  0.00    -0.274 OA
ATOM      4  N   GLY A   2      -5.330  14.365  14.674  0.00  0.00    -0.296 N 
ATOM      5  H   GLY A   2      -5.751  14.867  13.866  0.00  0.00    +0.150 HD
BRANCH   2   6
ATOM      6  CA  PHE A   1      -7.543  13.360  14.974  0.00  0.00    +0.149 C 
BRANCH   6   7
ATOM      7  N   PHE A   1      -8.226  14.600  14.623  0.00  0.00    -0.238 NA
ATOM      8  H   PHE A   1      -8.587  14.723  13.656  0.00  0.00    +0.142 HD
ENDBRANCH   6   7
BRANCH   6   9
ATOM      9  CB  PHE A   1      -7.605  12.336  13.830  0.00  0.00    +0.053 C 
BRANCH   9  10
ATOM     10  CG  PHE A   1      -6.963  11.031  14.152  0.00  0.00    -0.020 A 
ATOM     11  CD2 PHE A   1      -7.663  10.060  14.860  0.00  0.00    -0.004 A 
ATOM     12  CE2 PHE A   1      -7.071   8.831  15.181  0.00  0.00    -0.000 A 
ATOM     13  CZ  PHE A   1      -5.764   8.569  14.793  0.00  0.00    -0.000 A 
ATOM     14  CE1 PHE A   1      -5.038   9.538  14.071  0.00  0.00    -0.000 A 
ATOM     15  CD1 PHE A   1      -5.635  10.756  13.758  0.00  0.00    -0.004 A 
ENDBRANCH   9  10
ENDBRANCH   6   9
ENDBRANCH   2   6
ENDBRANCH   1   4
BRANCH   1  16
ATOM     16  C   GLY A   2      -3.645  15.183  16.319  0.00  0.00    +0.243 C 
ATOM     17  O   GLY A   2      -2.662  14.866  16.983  0.00  0.00    -0.273 OA
ATOM     18  N   LYS A   3      -4.528  16.093  16.725  0.00  0.00    -0.298 N 
ATOM     19  H   LYS A   3      -5.296  16.387  16.088  0.00  0.00    +0.150 HD
BRANCH  18  20
ATOM     20  CA  LYS A   3      -4.426  16.686  18.067  0.00  0.00    +0.137 C 
BRANCH  20  21
ATOM     21  C   LYS A   3      -4.898  15.737  19.169  0.00  0.00    +0.227 C 
ATOM     22  O   LYS A   3      -4.307  15.646  20.250  0.00  0.00    -0.286 OA
ENDBRANCH  20  21
BRANCH  20  23
ATOM     23  CB  LYS A   3      -5.192  17.998  18.154  0.00  0.00    +0.028 C 
BRANCH  23  24
ATOM     24  CG  LYS A   3      -4.608  19.118  17.286  0.00  0.00    -0.000 C 
BRANCH  24  25
ATOM     25  CD  LYS A   3      -3.105  19.201  17.448  0.00  0.00    -0.024 C 
BRANCH  25  26
ATOM     26  CE  LYS A   3      -2.680  19.636  18.862  0.00  0.00    -0.086 C 
BRANCH  26  27
ATOM     27  NZ  LYS A   3      -3.210  20.989  19.241  0.00  0.00    +0.380 N 
ATOM     28  HZ1 LYS A   3      -2.892  21.228  20.202  0.00  0.00    -0.089 HD
ATOM     29  HZ2 LYS A   3      -4.249  20.973  19.213  0.00  0.00    -0.089 HD
ATOM     30  HZ3 LYS A   3      -2.855  21.700  18.570  0.00  0.00    -0.089 HD
ENDBRANCH  26  27
ENDBRANCH  25  26
ENDBRANCH  24  25
ENDBRANCH  23  24
ENDBRANCH  20  23
ENDBRANCH  18  20
ENDBRANCH   1  16
TORSDOF 13
REMARK  Name = ../refined-set-2016/3sap/3sap_pocket.pdb
REMARK  163 active torsions:
REMARK  status: ('A' for Active; 'I' for Inactive)
REMARK    1  A    between atoms: _1  and  _3
REMARK    2  A    between atoms: _3  and  _4
REMARK    3  A    between atoms: _3  and  _6
REMARK    4  A    between atoms: _6  and  _7
REMARK    5  A    between atoms: _17  and  _19
REMARK    6  A    between atoms: _19  and  _20
REMARK    7  A    between atoms: _19  and  _22
REMARK    8  A    between atoms: _22  and  _23
REMARK    9  A    between atoms: _28  and  _29
REMARK   10  A    between atoms: _31  and  _33
REMARK   11  A    between atoms: _33  and  _34
REMARK   12  A    between atoms: _33  and  _36
REMARK   13  A    between atoms: _36  and  _37
REMARK   14  A    between atoms: _43  and  _45
REMARK   15  A    between atoms: _45  and  _46
REMARK   16  A    between atoms: _45  and  _48
REMARK   17  A    between atoms: _48  and  _49
REMARK   18  A    between atoms: _52  and  _53
REMARK   19  A    between atoms: _58  and  _60
REMARK   20  A    between atoms: _60  and  _61
REMARK   21  A    between atoms: _60  and  _63
REMARK   22  A    between atoms: _63  and  _64
REMARK   23  A    between atoms: _69  and  _71
REMARK   24  A    between atoms: _71  and  _72
REMARK   25  A    between atoms: _75  and  _77
REMARK   26  A    between atoms: _77  and  _78
REMARK   27  A    between atoms: _77  and  _80
REMARK   28  A    between atoms: _80  and  _81
REMARK   29  A    between atoms: _86  and  _88
REMARK   30  A    between atoms: _88  and  _89
REMARK   31  A    between atoms: _88  and  _91
REMARK   32  A    between atoms: _91  and  _92
REMARK   33  A    between atoms: _95  and  _97
REMARK   34  A    between atoms: _97  and  _98
REMARK   35  A    between atoms: _97  and  _100
REMARK   36  A    between atoms: _100  and  _101
REMARK   37  A    between atoms: _101  and  _102
REMARK   38  A    between atoms: _107  and  _109
REMARK   39  A    between atoms: _109  and  _110
REMARK   40  A    between atoms: _109  and  _112
REMARK   41  A    between atoms: _112  and  _113
REMARK   42  A    between atoms: _119  and  _121
REMARK   43  A    between atoms: _132  and  _135
REMARK   44  A    between atoms: _135  and  _136
REMARK   45  A    between atoms: _144  and  _145
REMARK   46  A    between atoms: _153  and  _155
REMARK   47  A    between atoms: _155  and  _156
REMARK   48  A    between atoms: _155  and  _158
REMARK   49  A    between atoms: _158  and  _159
REMARK   50  A    between atoms: _159  and  _160
REMARK   51  A    between atoms: _163  and  _165
REMARK   52  A    between atoms: _165  and  _166
REMARK   53  A    between atoms: _165  and  _168
REMARK   54  A    between atoms: _168  and  _169
REMARK   55  A    between atoms: _174  and  _176
REMARK   56  A    between atoms: _176  and  _177
REMARK   57  A    between atoms: _176  and  _179
REMARK   58  A    between atoms: _179  and  _180
REMARK   59  A    between atoms: _180  and  _181
REMARK   60  A    between atoms: _184  and  _186
REMARK   61  A    between atoms: _186  and  _187
REMARK   62  A    between atoms: _186  and  _189
REMARK   63  A    between atoms: _189  and  _190
REMARK   64  A    between atoms: _193  and  _195
REMARK   65  A    between atoms: _195  and  _196
REMARK   66  A    between atoms: _195  and  _198
REMARK   67  A    between atoms: _198  and  _199
REMARK   68  A    between atoms: _200  and  ZN_450
REMARK   69  A    between atoms: _204  and  _206
REMARK   70  A    between atoms: _206  and  _207
REMARK   71  A    between atoms: _206  and  _209
REMARK   72  A    between atoms: _209  and  _210
REMARK   73  A    between atoms: _213  and  _215
REMARK   74  A    between atoms: _215  and  _216
REMARK   75  A    between atoms: _215  and  _218
REMARK   76  A    between atoms: _221  and  _223
REMARK   77  A    between atoms: _223  and  _224
REMARK   78  A    between atoms: _223  and  _226
REMARK   79  A    between atoms: _226  and  _227
REMARK   80  A    between atoms: _232  and  _234
REMARK   81  A    between atoms: _234  and  _235
REMARK   82  A    between atoms: _234  and  _237
REMARK   83  A    between atoms: _237  and  _238
REMARK   84  A    between atoms: _244  and  _246
REMARK   85  A    between atoms: _246  and  _247
REMARK   86  A    between atoms: _249  and  _251
REMARK   87  A    between atoms: _251  and  _252
REMARK   88  A    between atoms: _251  and  _254
REMARK   89  A    between atoms: _254  and  _255
REMARK   90  A    between atoms: _255  and  _256
REMARK   91  A    between atoms: _256  and  _257
REMARK   92  A    between atoms: _257  and  _258
REMARK   93  A    between atoms: _262  and  _264
REMARK   94  A    between atoms: _264  and  _265
REMARK   95  A    between atoms: _264  and  _267
REMARK   96  A    between atoms: _270  and  _272
REMARK   97  A    between atoms: _272  and  _273
REMARK   98  A    between atoms: _272  and  _275
REMARK   99  A    between atoms: _275  and  _276
REMARK  100  A    between atoms: _276  and  _277
REMARK  101  A    between atoms: _282  and  _284
REMARK  102  A    between atoms: _284  and  _285
REMARK  103  A    between atoms: _284  and  _287
REMARK  104  A    between atoms: _287  and  _288
REMARK  105  A    between atoms: _291  and  _293
REMARK  106  A    between atoms: _293  and  _294
REMARK  107  A    between atoms: _297  and  _299
REMARK  108  A    between atoms: _299  and  _300
REMARK  109  A    between atoms: _299  and  _302
REMARK  110  A    between atoms: _305  and  _307
REMARK  111  A    between atoms: _307  and  _308
REMARK  112  A    between atoms: _307  and  _310
REMARK  113  A    between atoms: _310  and  _311
REMARK  114  A    between atoms: _314  and  _316
REMARK  115  A    between atoms: _316  and  _317
REMARK  116  A    between atoms: _319  and  _321
REMARK  117  A    between atoms: _321  and  _322
REMARK  118  A    between atoms: _324  and  _326
REMARK  119  A    between atoms: _326  and  _327
REMARK  120  A    between atoms: _326  and  _329
REMARK  121  A    between atoms: _329  and  _330
REMARK  122  A    between atoms: _332  and  _334
REMARK  123  A    between atoms: _334  and  _335
REMARK  124  A    between atoms: _334  and  _337
REMARK  125  A    between atoms: _337  and  _338
REMARK  126  A    between atoms: _341  and  _343
REMARK  127  A    between atoms: _343  and  _344
REMARK  128  A    between atoms: _343  and  _346
REMARK  129  A    between atoms: _346  and  _347
REMARK  130  A    between atoms: _350  and  _352
REMARK  131  A    between atoms: _352  and  _353
REMARK  132  A    between atoms: _352  and  _355
REMARK  133  A    between atoms: _355  and  _356
REMARK  134  A    between atoms: _360  and  _361
REMARK  135  A    between atoms: _367  and  _368
REMARK  136  A    between atoms: _373  and  _375
REMARK  137  A    between atoms: _375  and  _376
REMARK  138  A    between atoms: _375  and  _378
REMARK  139  A    between atoms: _378  and  _379
REMARK  140  A    between atoms: _382  and  _384
REMARK  141  A    between atoms: _384  and  _385
REMARK  142  A    between atoms: _384  and  _387
REMARK  143  A    between atoms: _387  and  _388
REMARK  144  A    between atoms: _391  and  _393
REMARK  145  A    between atoms: _393  and  _394
REMARK  146  A    between atoms: _393  and  _396
REMARK  147  A    between atoms: _398  and  _400
REMARK  148  A    between atoms: _400  and  _401
REMARK  149  A    between atoms: _400  and  _403
REMARK  150  A    between atoms: _406  and  _408
REMARK  151  A    between atoms: _408  and  _409
REMARK  152  A    between atoms: _408  and  _411
REMARK  153  A    between atoms: _411  and  _412
REMARK  154  A    between atoms: _422  and  _424
REMARK  155  A    between atoms: _424  and  _425
REMARK  156  A    between atoms: _424  and  _427
REMARK  157  A    between atoms: _427  and  _428
REMARK  158  A    between atoms: _433  and  _435
REMARK  159  A    between atoms: _435  and  _436
REMARK  160  A    between atoms: _435  and  _438
REMARK  161  A    between atoms: _438  and  _439
REMARK  162  A    between atoms: _439  and  _440
REMARK  163  A    between atoms: _440  and  _441
REMARK                            x       y       z     vdW  Elec       q    Type
REMARK                         _______ _______ _______ _____ _____    ______ ____
ROOT
ATOM      1  C   VAL A   1      -2.686  11.789  20.628  0.00  0.00    +0.238 C 
ATOM      2  O   VAL A   1      -1.968  10.947  21.177  0.00  0.00    -0.274 OA
ATOM      3  N   GLN A   2      -2.541  13.100  20.818  0.00  0.00    -0.298 N 
ATOM      4  H   GLN A   2      -3.148  13.758  20.289  0.00  0.00    +0.150 HD
ENDROOT
BRANCH   1   5
ATOM      5  CA  VAL A   1      -3.800  11.376  19.661  0.00  0.00    +0.145 C 
BRANCH   5   6
ATOM      6  CB  VAL A   1      -3.191  10.644  18.425  0.00  0.00    +0.025 C 
ATOM      7  CG2 VAL A   1      -4.283  10.000  17.606  0.00  0.00    +0.002 C 
ATOM      8  CG1 VAL A   1      -2.297  11.576  17.586  0.00  0.00    +0.002 C 
ENDBRANCH   5   6
BRANCH   5   9
ATOM      9  N   VAL A   1      -4.726  12.493  19.302  0.00  0.00    -0.238 NA
ATOM     10  H   VAL A   1      -4.740  12.873  18.334  0.00  0.00    +0.142 HD
ENDBRANCH   5   9
ENDBRANCH   1   5
BRANCH   3  11
ATOM     11  CA  GLN A   2      -1.551  13.637  21.750  0.00  0.00    +0.137 C 
BRANCH  11  12
ATOM     12  C   GLN A   2      -2.173  13.902  23.129  0.00  0.00    +0.227 C 
ATOM     13  O   GLN A   2      -1.570  14.579  23.978  0.00  0.00    -0.286 OA
ENDBRANCH  11  12
BRANCH  11  14
ATOM     14  CB  GLN A   2      -0.919  14.923  21.172  0.00  0.00    +0.037 C 
BRANCH  14  15
ATOM     15  CG  GLN A   2      -0.167  14.749  19.833  0.00  0.00    +0.087 C 
BRANCH  15  16
ATOM     16  CD  GLN A   2       1.090  13.895  19.933  0.00  0.00    +0.219 C 
ATOM     17  OE1 GLN A   2       1.784  13.905  20.948  0.00  0.00    -0.275 OA
ATOM     18  NE2 GLN A   2       1.399  13.159  18.860  0.00  0.00    -0.329 N 
ATOM     19 HE21 GLN A   2       2.254  12.566  18.864  0.00  0.00    +0.145 HD
ATOM     20 HE22 GLN A   2       0.785  13.179  18.021  0.00  0.00    +0.145 HD
ENDBRANCH  15  16
ENDBRANCH  14  15
ENDBRANCH  11  14
ENDBRANCH   3  11
TORSDOF 8
REMARK  Name = ../refined-set-2016/3sap/3sap_pocket.pdb
REMARK  163 active torsions:
REMARK  status: ('A' for Active; 'I' for Inactive)
REMARK    1  A    between atoms: _1  and  _3
REMARK    2  A    between atoms: _3  and  _4
REMARK    3  A    between atoms: _3  and  _6
REMARK    4  A    between atoms: _6  and  _7
REMARK    5  A    between atoms: _17  and  _19
REMARK    6  A    between atoms: _19  and  _20
REMARK    7  A    between atoms: _19  and  _22
REMARK    8  A    between atoms: _22  and  _23
REMARK    9  A    between atoms: _28  and  _29
REMARK   10  A    between atoms: _31  and  _33
REMARK   11  A    between atoms: _33  and  _34
REMARK   12  A    between atoms: _33  and  _36
REMARK   13  A    between atoms: _36  and  _37
REMARK   14  A    between atoms: _43  and  _45
REMARK   15  A    between atoms: _45  and  _46
REMARK   16  A    between atoms: _45  and  _48
REMARK   17  A    between atoms: _48  and  _49
REMARK   18  A    between atoms: _52  and  _53
REMARK   19  A    between atoms: _58  and  _60
REMARK   20  A    between atoms: _60  and  _61
REMARK   21  A    between atoms: _60  and  _63
REMARK   22  A    between atoms: _63  and  _64
REMARK   23  A    between atoms: _69  and  _71
REMARK   24  A    between atoms: _71  and  _72
REMARK   25  A    between atoms: _75  and  _77
REMARK   26  A    between atoms: _77  and  _78
REMARK   27  A    between atoms: _77  and  _80
REMARK   28  A    between atoms: _80  and  _81
REMARK   29  A    between atoms: _86  and  _88
REMARK   30  A    between atoms: _88  and  _89
REMARK   31  A    between atoms: _88  and  _91
REMARK   32  A    between atoms: _91  and  _92
REMARK   33  A    between atoms: _95  and  _97
REMARK   34  A    between atoms: _97  and  _98
REMARK   35  A    between atoms: _97  and  _100
REMARK   36  A    between atoms: _100  and  _101
REMARK   37  A    between atoms: _101  and  _102
REMARK   38  A    between atoms: _107  and  _109
REMARK   39  A    between atoms: _109  and  _110
REMARK   40  A    between atoms: _109  and  _112
REMARK   41  A    between atoms: _112  and  _113
REMARK   42  A    between atoms: _119  and  _121
REMARK   43  A    between atoms: _132  and  _135
REMARK   44  A    between atoms: _135  and  _136
REMARK   45  A    between atoms: _144  and  _145
REMARK   46  A    between atoms: _153  and  _155
REMARK   47  A    between atoms: _155  and  _156
REMARK   48  A    between atoms: _155  and  _158
REMARK   49  A    between atoms: _158  and  _159
REMARK   50  A    between atoms: _159  and  _160
REMARK   51  A    between atoms: _163  and  _165
REMARK   52  A    between atoms: _165  and  _166
REMARK   53  A    between atoms: _165  and  _168
REMARK   54  A    between atoms: _168  and  _169
REMARK   55  A    between atoms: _174  and  _176
REMARK   56  A    between atoms: _176  and  _177
REMARK   57  A    between atoms: _176  and  _179
REMARK   58  A    between atoms: _179  and  _180
REMARK   59  A    between atoms: _180  and  _181
REMARK   60  A    between atoms: _184  and  _186
REMARK   61  A    between atoms: _186  and  _187
REMARK   62  A    between atoms: _186  and  _189
REMARK   63  A    between atoms: _189  and  _190
REMARK   64  A    between atoms: _193  and  _195
REMARK   65  A    between atoms: _195  and  _196
REMARK   66  A    between atoms: _195  and  _198
REMARK   67  A    between atoms: _198  and  _199
REMARK   68  A    between atoms: _200  and  ZN_450
REMARK   69  A    between atoms: _204  and  _206
REMARK   70  A    between atoms: _206  and  _207
REMARK   71  A    between atoms: _206  and  _209
REMARK   72  A    between atoms: _209  and  _210
REMARK   73  A    between atoms: _213  and  _215
REMARK   74  A    between atoms: _215  and  _216
REMARK   75  A    between atoms: _215  and  _218
REMARK   76  A    between atoms: _221  and  _223
REMARK   77  A    between atoms: _223  and  _224
REMARK   78  A    between atoms: _223  and  _226
REMARK   79  A    between atoms: _226  and  _227
REMARK   80  A    between atoms: _232  and  _234
REMARK   81  A    between atoms: _234  and  _235
REMARK   82  A    between atoms: _234  and  _237
REMARK   83  A    between atoms: _237  and  _238
REMARK   84  A    between atoms: _244  and  _246
REMARK   85  A    between atoms: _246  and  _247
REMARK   86  A    between atoms: _249  and  _251
REMARK   87  A    between atoms: _251  and  _252
REMARK   88  A    between atoms: _251  and  _254
REMARK   89  A    between atoms: _254  and  _255
REMARK   90  A    between atoms: _255  and  _256
REMARK   91  A    between atoms: _256  and  _257
REMARK   92  A    between atoms: _257  and  _258
REMARK   93  A    between atoms: _262  and  _264
REMARK   94  A    between atoms: _264  and  _265
REMARK   95  A    between atoms: _264  and  _267
REMARK   96  A    between atoms: _270  and  _272
REMARK   97  A    between atoms: _272  and  _273
REMARK   98  A    between atoms: _272  and  _275
REMARK   99  A    between atoms: _275  and  _276
REMARK  100  A    between atoms: _276  and  _277
REMARK  101  A    between atoms: _282  and  _284
REMARK  102  A    between atoms: _284  and  _285
REMARK  103  A    between atoms: _284  and  _287
REMARK  104  A    between atoms: _287  and  _288
REMARK  105  A    between atoms: _291  and  _293
REMARK  106  A    between atoms: _293  and  _294
REMARK  107  A    between atoms: _297  and  _299
REMARK  108  A    between atoms: _299  and  _300
REMARK  109  A    between atoms: _299  and  _302
REMARK  110  A    between atoms: _305  and  _307
REMARK  111  A    between atoms: _307  and  _308
REMARK  112  A    between atoms: _307  and  _310
REMARK  113  A    between atoms: _310  and  _311
REMARK  114  A    between atoms: _314  and  _316
REMARK  115  A    between atoms: _316  and  _317
REMARK  116  A    between atoms: _319  and  _321
REMARK  117  A    between atoms: _321  and  _322
REMARK  118  A    between atoms: _324  and  _326
REMARK  119  A    between atoms: _326  and  _327
REMARK  120  A    between atoms: _326  and  _329
REMARK  121  A    between atoms: _329  and  _330
REMARK  122  A    between atoms: _332  and  _334
REMARK  123  A    between atoms: _334  and  _335
REMARK  124  A    between atoms: _334  and  _337
REMARK  125  A    between atoms: _337  and  _338
REMARK  126  A    between atoms: _341  and  _343
REMARK  127  A    between atoms: _343  and  _344
REMARK  128  A    between atoms: _343  and  _346
REMARK  129  A    between atoms: _346  and  _347
REMARK  130  A    between atoms: _350  and  _352
REMARK  131  A    between atoms: _352  and  _353
REMARK  132  A    between atoms: _352  and  _355
REMARK  133  A    between atoms: _355  and  _356
REMARK  134  A    between atoms: _360  and  _361
REMARK  135  A    between atoms: _367  and  _368
REMARK  136  A    between atoms: _373  and  _375
REMARK  137  A    between atoms: _375  and  _376
REMARK  138  A    between atoms: _375  and  _378
REMARK  139  A    between atoms: _378  and  _379
REMARK  140  A    between atoms: _382  and  _384
REMARK  141  A    between atoms: _384  and  _385
REMARK  142  A    between atoms: _384  and  _387
REMARK  143  A    between atoms: _387  and  _388
REMARK  144  A    between atoms: _391  and  _393
REMARK  145  A    between atoms: _393  and  _394
REMARK  146  A    between atoms: _393  and  _396
REMARK  147  A    between atoms: _398  and  _400
REMARK  148  A    between atoms: _400  and  _401
REMARK  149  A    between atoms: _400  and  _403
REMARK  150  A    between atoms: _406  and  _408
REMARK  151  A    between atoms: _408  and  _409
REMARK  152  A    between atoms: _408  and  _411
REMARK  153  A    between atoms: _411  and  _412
REMARK  154  A    between atoms: _422  and  _424
REMARK  155  A    between atoms: _424  and  _425
REMARK  156  A    between atoms: _424  and  _427
REMARK  157  A    between atoms: _427  and  _428
REMARK  158  A    between atoms: _433  and  _435
REMARK  159  A    between atoms: _435  and  _436
REMARK  160  A    between atoms: _435  and  _438
REMARK  161  A    between atoms: _438  and  _439
REMARK  162  A    between atoms: _439  and  _440
REMARK  163  A    between atoms: _440  and  _441
REMARK                            x       y       z     vdW  Elec       q    Type
REMARK                         _______ _______ _______ _____ _____    ______ ____
ROOT
ATOM      1  CA  VAL A   3     -11.750   2.689  19.980  0.00  0.00    +0.149 C 
ENDROOT
BRANCH   1   3
ATOM      2  C   ALA A   2     -12.244   4.922  20.726  0.00  0.00    +0.241 C 
ATOM      3  N   VAL A   3     -11.720   3.732  20.996  0.00  0.00    -0.297 N 
ATOM      4  H   VAL A   3     -11.292   3.546  21.925  0.00  0.00    +0.150 HD
ATOM      5  O   ALA A   2     -12.635   5.246  19.584  0.00  0.00    -0.273 OA
BRANCH   2   6
ATOM      6  CA  ALA A   2     -12.219   5.949  21.878  0.00  0.00    +0.149 C 
ATOM      7  CB  ALA A   2     -13.609   6.380  22.253  0.00  0.00    +0.031 C 
BRANCH   6  10
ATOM      8  C   LEU A   1     -10.384   7.557  22.030  0.00  0.00    +0.238 C 
ATOM      9  O   LEU A   1     -10.153   7.271  23.203  0.00  0.00    -0.274 OA
ATOM     10  N   ALA A   2     -11.442   7.093  21.365  0.00  0.00    -0.297 N 
ATOM     11  H   ALA A   2     -11.724   7.544  20.471  0.00  0.00    +0.150 HD
BRANCH   8  12
ATOM     12  CA  LEU A   1      -9.469   8.479  21.239  0.00  0.00    +0.145 C 
BRANCH  12  13
ATOM     13  N   LEU A   1      -8.788   9.458  22.099  0.00  0.00    -0.238 NA
ATOM     14  H   LEU A   1      -8.177   9.128  22.873  0.00  0.00    +0.142 HD
ENDBRANCH  12  13
BRANCH  12  15
ATOM     15  CB  LEU A   1      -8.461   7.633  20.468  0.00  0.00    +0.026 C 
BRANCH  15  16
ATOM     16  CG  LEU A   1      -7.506   8.275  19.465  0.00  0.00    +0.002 C 
ATOM     17  CD2 LEU A   1      -8.162   9.355  18.589  0.00  0.00    +0.000 C 
ATOM     18  CD1 LEU A   1      -6.951   7.181  18.580  0.00  0.00    +0.000 C 
ENDBRANCH  15  16
ENDBRANCH  12  15
ENDBRANCH   8  12
ENDBRANCH   6  10
ENDBRANCH   2   6
ENDBRANCH   1   3
BRANCH   1  19
ATOM     19  C   VAL A   3     -12.715   1.623  20.456  0.00  0.00    +0.241 C 
ATOM     20  O   VAL A   3     -12.571   1.065  21.566  0.00  0.00    -0.273 OA
ATOM     21  N   LEU A   4     -13.688   1.330  19.605  0.00  0.00    -0.297 N 
ATOM     22  H   LEU A   4     -13.760   1.858  18.712  0.00  0.00    +0.150 HD
BRANCH  21  23
ATOM     23  CA  LEU A   4     -14.668   0.274  19.897  0.00  0.00    +0.149 C 
BRANCH  23  24
ATOM     24  C   LEU A   4     -14.159  -1.002  19.224  0.00  0.00    +0.241 C 
ATOM     25  N   GLY A   5     -13.865  -2.017  20.042  0.00  0.00    -0.296 N 
ATOM     26  H   GLY A   5     -14.046  -1.903  21.060  0.00  0.00    +0.150 HD
ATOM     27  O   LEU A   4     -14.040  -1.062  17.983  0.00  0.00    -0.273 OA
BRANCH  25  28
ATOM     28  CA  GLY A   5     -13.296  -3.290  19.566  0.00  0.00    +0.163 C 
BRANCH  28  29
ATOM     29  C   GLY A   5     -14.375  -4.364  19.536  0.00  0.00    +0.229 C 
ATOM     30  O   GLY A   5     -15.125  -4.537  20.502  0.00  0.00    -0.286 OA
ENDBRANCH  28  29
ENDBRANCH  25  28
ENDBRANCH  23  24
BRANCH  23  31
ATOM     31  CB  LEU A   4     -16.065   0.691  19.363  0.00  0.00    +0.029 C 
BRANCH  31  32
ATOM     32  CG  LEU A   4     -17.206  -0.302  19.469  0.00  0.00    +0.002 C 
ATOM     33  CD2 LEU A   4     -17.416  -0.673  20.933  0.00  0.00    +0.000 C 
ATOM     34  CD1 LEU A   4     -18.493   0.250  18.774  0.00  0.00    +0.000 C 
ENDBRANCH  31  32
ENDBRANCH  23  31
ENDBRANCH  21  23
ENDBRANCH   1  19
BRANCH   1  35
ATOM     35  CB  VAL A   3     -10.342   2.099  19.621  0.00  0.00    +0.027 C 
ATOM     36  CG2 VAL A   3      -9.390   3.230  19.220  0.00  0.00    +0.002 C 
ATOM     37  CG1 VAL A   3     -10.442   1.070  18.456  0.00  0.00    +0.002 C 
ENDBRANCH   1  35
TORSDOF 15
REMARK  Name = ../refined-set-2016/3sap/3sap_pocket.pdb
REMARK  163 active torsions:
REMARK  status: ('A' for Active; 'I' for Inactive)
REMARK    1  A    between atoms: _1  and  _3
REMARK    2  A    between atoms: _3  and  _4
REMARK    3  A    between atoms: _3  and  _6
REMARK    4  A    between atoms: _6  and  _7
REMARK    5  A    between atoms: _17  and  _19
REMARK    6  A    between atoms: _19  and  _20
REMARK    7  A    between atoms: _19  and  _22
REMARK    8  A    between atoms: _22  and  _23
REMARK    9  A    between atoms: _28  and  _29
REMARK   10  A    between atoms: _31  and  _33
REMARK   11  A    between atoms: _33  and  _34
REMARK   12  A    between atoms: _33  and  _36
REMARK   13  A    between atoms: _36  and  _37
REMARK   14  A    between atoms: _43  and  _45
REMARK   15  A    between atoms: _45  and  _46
REMARK   16  A    between atoms: _45  and  _48
REMARK   17  A    between atoms: _48  and  _49
REMARK   18  A    between atoms: _52  and  _53
REMARK   19  A    between atoms: _58  and  _60
REMARK   20  A    between atoms: _60  and  _61
REMARK   21  A    between atoms: _60  and  _63
REMARK   22  A    between atoms: _63  and  _64
REMARK   23  A    between atoms: _69  and  _71
REMARK   24  A    between atoms: _71  and  _72
REMARK   25  A    between atoms: _75  and  _77
REMARK   26  A    between atoms: _77  and  _78
REMARK   27  A    between atoms: _77  and  _80
REMARK   28  A    between atoms: _80  and  _81
REMARK   29  A    between atoms: _86  and  _88
REMARK   30  A    between atoms: _88  and  _89
REMARK   31  A    between atoms: _88  and  _91
REMARK   32  A    between atoms: _91  and  _92
REMARK   33  A    between atoms: _95  and  _97
REMARK   34  A    between atoms: _97  and  _98
REMARK   35  A    between atoms: _97  and  _100
REMARK   36  A    between atoms: _100  and  _101
REMARK   37  A    between atoms: _101  and  _102
REMARK   38  A    between atoms: _107  and  _109
REMARK   39  A    between atoms: _109  and  _110
REMARK   40  A    between atoms: _109  and  _112
REMARK   41  A    between atoms: _112  and  _113
REMARK   42  A    between atoms: _119  and  _121
REMARK   43  A    between atoms: _132  and  _135
REMARK   44  A    between atoms: _135  and  _136
REMARK   45  A    between atoms: _144  and  _145
REMARK   46  A    between atoms: _153  and  _155
REMARK   47  A    between atoms: _155  and  _156
REMARK   48  A    between atoms: _155  and  _158
REMARK   49  A    between atoms: _158  and  _159
REMARK   50  A    between atoms: _159  and  _160
REMARK   51  A    between atoms: _163  and  _165
REMARK   52  A    between atoms: _165  and  _166
REMARK   53  A    between atoms: _165  and  _168
REMARK   54  A    between atoms: _168  and  _169
REMARK   55  A    between atoms: _174  and  _176
REMARK   56  A    between atoms: _176  and  _177
REMARK   57  A    between atoms: _176  and  _179
REMARK   58  A    between atoms: _179  and  _180
REMARK   59  A    between atoms: _180  and  _181
REMARK   60  A    between atoms: _184  and  _186
REMARK   61  A    between atoms: _186  and  _187
REMARK   62  A    between atoms: _186  and  _189
REMARK   63  A    between atoms: _189  and  _190
REMARK   64  A    between atoms: _193  and  _195
REMARK   65  A    between atoms: _195  and  _196
REMARK   66  A    between atoms: _195  and  _198
REMARK   67  A    between atoms: _198  and  _199
REMARK   68  A    between atoms: _200  and  ZN_450
REMARK   69  A    between atoms: _204  and  _206
REMARK   70  A    between atoms: _206  and  _207
REMARK   71  A    between atoms: _206  and  _209
REMARK   72  A    between atoms: _209  and  _210
REMARK   73  A    between atoms: _213  and  _215
REMARK   74  A    between atoms: _215  and  _216
REMARK   75  A    between atoms: _215  and  _218
REMARK   76  A    between atoms: _221  and  _223
REMARK   77  A    between atoms: _223  and  _224
REMARK   78  A    between atoms: _223  and  _226
REMARK   79  A    between atoms: _226  and  _227
REMARK   80  A    between atoms: _232  and  _234
REMARK   81  A    between atoms: _234  and  _235
REMARK   82  A    between atoms: _234  and  _237
REMARK   83  A    between atoms: _237  and  _238
REMARK   84  A    between atoms: _244  and  _246
REMARK   85  A    between atoms: _246  and  _247
REMARK   86  A    between atoms: _249  and  _251
REMARK   87  A    between atoms: _251  and  _252
REMARK   88  A    between atoms: _251  and  _254
REMARK   89  A    between atoms: _254  and  _255
REMARK   90  A    between atoms: _255  and  _256
REMARK   91  A    between atoms: _256  and  _257
REMARK   92  A    between atoms: _257  and  _258
REMARK   93  A    between atoms: _262  and  _264
REMARK   94  A    between atoms: _264  and  _265
REMARK   95  A    between atoms: _264  and  _267
REMARK   96  A    between atoms: _270  and  _272
REMARK   97  A    between atoms: _272  and  _273
REMARK   98  A    between atoms: _272  and  _275
REMARK   99  A    between atoms: _275  and  _276
REMARK  100  A    between atoms: _276  and  _277
REMARK  101  A    between atoms: _282  and  _284
REMARK  102  A    between atoms: _284  and  _285
REMARK  103  A    between atoms: _284  and  _287
REMARK  104  A    between atoms: _287  and  _288
REMARK  105  A    between atoms: _291  and  _293
REMARK  106  A    between atoms: _293  and  _294
REMARK  107  A    between atoms: _297  and  _299
REMARK  108  A    between atoms: _299  and  _300
REMARK  109  A    between atoms: _299  and  _302
REMARK  110  A    between atoms: _305  and  _307
REMARK  111  A    between atoms: _307  and  _308
REMARK  112  A    between atoms: _307  and  _310
REMARK  113  A    between atoms: _310  and  _311
REMARK  114  A    between atoms: _314  and  _316
REMARK  115  A    between atoms: _316  and  _317
REMARK  116  A    between atoms: _319  and  _321
REMARK  117  A    between atoms: _321  and  _322
REMARK  118  A    between atoms: _324  and  _326
REMARK  119  A    between atoms: _326  and  _327
REMARK  120  A    between atoms: _326  and  _329
REMARK  121  A    between atoms: _329  and  _330
REMARK  122  A    between atoms: _332  and  _334
REMARK  123  A    between atoms: _334  and  _335
REMARK  124  A    between atoms: _334  and  _337
REMARK  125  A    between atoms: _337  and  _338
REMARK  126  A    between atoms: _341  and  _343
REMARK  127  A    between atoms: _343  and  _344
REMARK  128  A    between atoms: _343  and  _346
REMARK  129  A    between atoms: _346  and  _347
REMARK  130  A    between atoms: _350  and  _352
REMARK  131  A    between atoms: _352  and  _353
REMARK  132  A    between atoms: _352  and  _355
REMARK  133  A    between atoms: _355  and  _356
REMARK  134  A    between atoms: _360  and  _361
REMARK  135  A    between atoms: _367  and  _368
REMARK  136  A    between atoms: _373  and  _375
REMARK  137  A    between atoms: _375  and  _376
REMARK  138  A    between atoms: _375  and  _378
REMARK  139  A    between atoms: _378  and  _379
REMARK  140  A    between atoms: _382  and  _384
REMARK  141  A    between atoms: _384  and  _385
REMARK  142  A    between atoms: _384  and  _387
REMARK  143  A    between atoms: _387  and  _388
REMARK  144  A    between atoms: _391  and  _393
REMARK  145  A    between atoms: _393  and  _394
REMARK  146  A    between atoms: _393  and  _396
REMARK  147  A    between atoms: _398  and  _400
REMARK  148  A    between atoms: _400  and  _401
REMARK  149  A    between atoms: _400  and  _403
REMARK  150  A    between atoms: _406  and  _408
REMARK  151  A    between atoms: _408  and  _409
REMARK  152  A    between atoms: _408  and  _411
REMARK  153  A    between atoms: _411  and  _412
REMARK  154  A    between atoms: _422  and  _424
REMARK  155  A    between atoms: _424  and  _425
REMARK  156  A    between atoms: _424  and  _427
REMARK  157  A    between atoms: _427  and  _428
REMARK  158  A    between atoms: _433  and  _435
REMARK  159  A    between atoms: _435  and  _436
REMARK  160  A    between atoms: _435  and  _438
REMARK  161  A    between atoms: _438  and  _439
REMARK  162  A    between atoms: _439  and  _440
REMARK  163  A    between atoms: _440  and  _441
REMARK                            x       y       z     vdW  Elec       q    Type
REMARK                         _______ _______ _______ _____ _____    ______ ____
ROOT
ATOM      1  CA  THR A   5       0.327   0.033  16.007  0.00  0.00    +0.176 C 
ENDROOT
BRANCH   1   2
ATOM      2  C   THR A   5       1.133   1.277  16.290  0.00  0.00    +0.246 C 
ATOM      3  O   THR A   5       0.610   2.245  16.852  0.00  0.00    -0.273 OA
ATOM      4  N   PRO A   6       2.386   1.283  15.826  0.00  0.00    -0.272 N 
ATOM      5  CA  PRO A   6       3.109   2.550  15.928  0.00  0.00    +0.152 C 
ATOM      6  CB  PRO A   6       4.349   2.301  15.053  0.00  0.00    +0.031 C 
ATOM      7  CG  PRO A   6       4.593   0.857  15.134  0.00  0.00    +0.024 C 
ATOM      8  CD  PRO A   6       3.199   0.215  15.214  0.00  0.00    +0.094 C 
BRANCH   5   9
ATOM      9  C   PRO A   6       2.260   3.733  15.392  0.00  0.00    +0.244 C 
ATOM     10  N   PRO A   7       2.334   4.904  16.048  0.00  0.00    -0.272 N 
ATOM     11  CA  PRO A   7       3.227   5.316  17.154  0.00  0.00    +0.152 C 
ATOM     12  CB  PRO A   7       3.197   6.855  17.064  0.00  0.00    +0.031 C 
ATOM     13  CG  PRO A   7       1.858   7.175  16.527  0.00  0.00    +0.024 C 
ATOM     14  CD  PRO A   7       1.483   6.028  15.586  0.00  0.00    +0.094 C 
ATOM     15  O   PRO A   6       1.593   3.620  14.328  0.00  0.00    -0.273 OA
BRANCH  11  16
ATOM     16  C   PRO A   7       2.887   4.847  18.581  0.00  0.00    +0.241 C 
ATOM     17  O   PRO A   7       3.551   5.278  19.539  0.00  0.00    -0.273 OA
ATOM     18  N   LEU A   8       1.885   3.958  18.724  0.00  0.00    -0.297 N 
ATOM     19  H   LEU A   8       1.306   3.714  17.895  0.00  0.00    +0.150 HD
BRANCH  18  20
ATOM     20  CA  LEU A   8       1.584   3.322  20.015  0.00  0.00    +0.149 C 
BRANCH  20  21
ATOM     21  C   LEU A   8       1.209   4.329  21.130  0.00  0.00    +0.241 C 
ATOM     22  O   LEU A   8       1.405   4.076  22.321  0.00  0.00    -0.273 OA
ATOM     23  N   LEU A   9       0.646   5.457  20.717  0.00  0.00    -0.298 N 
ATOM     24  H   LEU A   9       0.391   5.557  19.714  0.00  0.00    +0.150 HD
BRANCH  23  25
ATOM     25  CA  LEU A   9       0.374   6.567  21.637  0.00  0.00    +0.137 C 
BRANCH  25  26
ATOM     26  C   LEU A   9      -0.648   6.150  22.687  0.00  0.00    +0.227 C 
ATOM     27  O   LEU A   9      -1.605   5.419  22.382  0.00  0.00    -0.286 OA
ENDBRANCH  25  26
BRANCH  25  28
ATOM     28  CB  LEU A   9      -0.082   7.826  20.868  0.00  0.00    +0.028 C 
BRANCH  28  29
ATOM     29  CG  LEU A   9       1.007   8.407  19.932  0.00  0.00    +0.002 C 
ATOM     30  CD2 LEU A   9       2.216   8.955  20.767  0.00  0.00    +0.000 C 
ATOM     31  CD1 LEU A   9       0.435   9.478  19.042  0.00  0.00    +0.000 C 
ENDBRANCH  28  29
ENDBRANCH  25  28
ENDBRANCH  23  25
ENDBRANCH  20  21
BRANCH  20  32
ATOM     32  CB  LEU A   8       2.764   2.441  20.471  0.00  0.00    +0.029 C 
BRANCH  32  33
ATOM     33  CG  LEU A   8       3.140   1.291  19.534  0.00  0.00    +0.002 C 
ATOM     34  CD2 LEU A   8       4.418   0.636  20.085  0.00  0.00    +0.000 C 
ATOM     35  CD1 LEU A   8       1.982   0.259  19.417  0.00  0.00    +0.000 C 
ENDBRANCH  32  33
ENDBRANCH  20  32
ENDBRANCH  18  20
ENDBRANCH  11  16
ENDBRANCH   5   9
ENDBRANCH   1   2
BRANCH   1  38
ATOM     36  C   THR A   4      -0.906  -1.118  17.790  0.00  0.00    +0.243 C 
ATOM     37  O   THR A   4      -0.329  -2.201  17.609  0.00  0.00    -0.273 OA
ATOM     38  N   THR A   5      -0.749  -0.048  17.001  0.00  0.00    -0.295 N 
ATOM     39  H   THR A   5      -1.410   0.750  17.095  0.00  0.00    +0.150 HD
BRANCH  36  40
ATOM     40  CA  THR A   4      -1.924  -0.998  18.927  0.00  0.00    +0.176 C 
BRANCH  40  43
ATOM     41  C   LEU A   3      -2.166   1.272  19.746  0.00  0.00    +0.241 C 
ATOM     42  O   LEU A   3      -1.157   1.134  20.455  0.00  0.00    -0.273 OA
ATOM     43  N   THR A   4      -2.620   0.297  18.967  0.00  0.00    -0.295 N 
ATOM     44  H   THR A   4      -3.468   0.449  18.385  0.00  0.00    +0.150 HD
BRANCH  41  45
ATOM     45  CA  LEU A   3      -2.927   2.601  19.738  0.00  0.00    +0.149 C 
BRANCH  45  48
ATOM     46  C   SER A   2      -3.377   2.416  22.115  0.00  0.00    +0.243 C 
ATOM     47  O   SER A   2      -4.129   1.457  21.942  0.00  0.00    -0.273 OA
ATOM     48  N   LEU A   3      -2.860   3.118  21.106  0.00  0.00    -0.297 N 
ATOM     49  H   LEU A   3      -2.408   4.036  21.292  0.00  0.00    +0.150 HD
BRANCH  46  50
ATOM     50  CA  SER A   2      -2.926   2.812  23.514  0.00  0.00    +0.178 C 
BRANCH  50  53
ATOM     51  C   GLY A   1      -4.125   2.780  25.633  0.00  0.00    +0.240 C 
ATOM     52  O   GLY A   1      -4.076   4.021  25.769  0.00  0.00    -0.274 OA
ATOM     53  N   SER A   2      -3.707   2.144  24.546  0.00  0.00    -0.295 N 
ATOM     54  H   SER A   2      -3.944   1.138  24.427  0.00  0.00    +0.150 HD
BRANCH  51  55
ATOM     55  CA  GLY A   1      -4.703   1.892  26.709  0.00  0.00    +0.169 C 
BRANCH  55  56
ATOM     56  N   GLY A   1      -5.809   2.544  27.434  0.00  0.00    -0.236 NA
ATOM     57  H   GLY A   1      -6.430   3.217  26.941  0.00  0.00    +0.142 HD
ENDBRANCH  55  56
ENDBRANCH  51  55
ENDBRANCH  50  53
BRANCH  50  58
ATOM     58  CB  SER A   2      -1.457   2.404  23.661  0.00  0.00    +0.166 C 
BRANCH  58  59
ATOM     59  OG  SER A   2      -1.296   1.041  23.232  0.00  0.00    -0.380 OA
ATOM     60  H   SER A   2      -1.569   0.960  22.284  0.00  0.00    +0.211 HD
ENDBRANCH  58  59
ENDBRANCH  50  58
ENDBRANCH  46  50
ENDBRANCH  45  48
BRANCH  45  61
ATOM     61  CB  LEU A   3      -2.284   3.602  18.787  0.00  0.00    +0.029 C 
BRANCH  61  62
ATOM     62  CG  LEU A   3      -2.876   5.007  18.633  0.00  0.00    +0.002 C 
ATOM     63  CD2 LEU A   3      -4.283   4.982  18.056  0.00  0.00    +0.000 C 
ATOM     64  CD1 LEU A   3      -1.943   5.815  17.725  0.00  0.00    +0.000 C 
ENDBRANCH  61  62
ENDBRANCH  45  61
ENDBRANCH  41  45
ENDBRANCH  40  43
BRANCH  40  65
ATOM     65  CB  THR A   4      -2.915  -2.183  18.786  0.00  0.00    +0.137 C 
ATOM     66  CG2 THR A   4      -3.912  -2.190  19.937  0.00  0.00    +0.034 C 
BRANCH  65  67
ATOM     67  OG1 THR A   4      -3.561  -2.114  17.518  0.00  0.00    -0.382 OA
ATOM     68  HG1 THR A   4      -4.193  -2.871  17.429  0.00  0.00    +0.210 HD
ENDBRANCH  65  67
ENDBRANCH  40  65
ENDBRANCH  36  40
ENDBRANCH   1  38
BRANCH   1  69
ATOM     69  CB  THR A   5      -0.167   0.158  14.537  0.00  0.00    +0.137 C 
ATOM     70  CG2 THR A   5      -0.924  -1.088  14.093  0.00  0.00    +0.034 C 
BRANCH  69  71
ATOM     71  OG1 THR A   5      -1.020   1.309  14.371  0.00  0.00    -0.382 OA
ATOM     72  HG1 THR A   5      -0.517   2.128  14.607  0.00  0.00    +0.210 HD
ENDBRANCH  69  71
ENDBRANCH   1  69
TORSDOF 28
REMARK  Name = ../refined-set-2016/3sap/3sap_pocket.pdb
REMARK  163 active torsions:
REMARK  status: ('A' for Active; 'I' for Inactive)
REMARK    1  A    between atoms: _1  and  _3
REMARK    2  A    between atoms: _3  and  _4
REMARK    3  A    between atoms: _3  and  _6
REMARK    4  A    between atoms: _6  and  _7
REMARK    5  A    between atoms: _17  and  _19
REMARK    6  A    between atoms: _19  and  _20
REMARK    7  A    between atoms: _19  and  _22
REMARK    8  A    between atoms: _22  and  _23
REMARK    9  A    between atoms: _28  and  _29
REMARK   10  A    between atoms: _31  and  _33
REMARK   11  A    between atoms: _33  and  _34
REMARK   12  A    between atoms: _33  and  _36
REMARK   13  A    between atoms: _36  and  _37
REMARK   14  A    between atoms: _43  and  _45
REMARK   15  A    between atoms: _45  and  _46
REMARK   16  A    between atoms: _45  and  _48
REMARK   17  A    between atoms: _48  and  _49
REMARK   18  A    between atoms: _52  and  _53
REMARK   19  A    between atoms: _58  and  _60
REMARK   20  A    between atoms: _60  and  _61
REMARK   21  A    between atoms: _60  and  _63
REMARK   22  A    between atoms: _63  and  _64
REMARK   23  A    between atoms: _69  and  _71
REMARK   24  A    between atoms: _71  and  _72
REMARK   25  A    between atoms: _75  and  _77
REMARK   26  A    between atoms: _77  and  _78
REMARK   27  A    between atoms: _77  and  _80
REMARK   28  A    between atoms: _80  and  _81
REMARK   29  A    between atoms: _86  and  _88
REMARK   30  A    between atoms: _88  and  _89
REMARK   31  A    between atoms: _88  and  _91
REMARK   32  A    between atoms: _91  and  _92
REMARK   33  A    between atoms: _95  and  _97
REMARK   34  A    between atoms: _97  and  _98
REMARK   35  A    between atoms: _97  and  _100
REMARK   36  A    between atoms: _100  and  _101
REMARK   37  A    between atoms: _101  and  _102
REMARK   38  A    between atoms: _107  and  _109
REMARK   39  A    between atoms: _109  and  _110
REMARK   40  A    between atoms: _109  and  _112
REMARK   41  A    between atoms: _112  and  _113
REMARK   42  A    between atoms: _119  and  _121
REMARK   43  A    between atoms: _132  and  _135
REMARK   44  A    between atoms: _135  and  _136
REMARK   45  A    between atoms: _144  and  _145
REMARK   46  A    between atoms: _153  and  _155
REMARK   47  A    between atoms: _155  and  _156
REMARK   48  A    between atoms: _155  and  _158
REMARK   49  A    between atoms: _158  and  _159
REMARK   50  A    between atoms: _159  and  _160
REMARK   51  A    between atoms: _163  and  _165
REMARK   52  A    between atoms: _165  and  _166
REMARK   53  A    between atoms: _165  and  _168
REMARK   54  A    between atoms: _168  and  _169
REMARK   55  A    between atoms: _174  and  _176
REMARK   56  A    between atoms: _176  and  _177
REMARK   57  A    between atoms: _176  and  _179
REMARK   58  A    between atoms: _179  and  _180
REMARK   59  A    between atoms: _180  and  _181
REMARK   60  A    between atoms: _184  and  _186
REMARK   61  A    between atoms: _186  and  _187
REMARK   62  A    between atoms: _186  and  _189
REMARK   63  A    between atoms: _189  and  _190
REMARK   64  A    between atoms: _193  and  _195
REMARK   65  A    between atoms: _195  and  _196
REMARK   66  A    between atoms: _195  and  _198
REMARK   67  A    between atoms: _198  and  _199
REMARK   68  A    between atoms: _200  and  ZN_450
REMARK   69  A    between atoms: _204  and  _206
REMARK   70  A    between atoms: _206  and  _207
REMARK   71  A    between atoms: _206  and  _209
REMARK   72  A    between atoms: _209  and  _210
REMARK   73  A    between atoms: _213  and  _215
REMARK   74  A    between atoms: _215  and  _216
REMARK   75  A    between atoms: _215  and  _218
REMARK   76  A    between atoms: _221  and  _223
REMARK   77  A    between atoms: _223  and  _224
REMARK   78  A    between atoms: _223  and  _226
REMARK   79  A    between atoms: _226  and  _227
REMARK   80  A    between atoms: _232  and  _234
REMARK   81  A    between atoms: _234  and  _235
REMARK   82  A    between atoms: _234  and  _237
REMARK   83  A    between atoms: _237  and  _238
REMARK   84  A    between atoms: _244  and  _246
REMARK   85  A    between atoms: _246  and  _247
REMARK   86  A    between atoms: _249  and  _251
REMARK   87  A    between atoms: _251  and  _252
REMARK   88  A    between atoms: _251  and  _254
REMARK   89  A    between atoms: _254  and  _255
REMARK   90  A    between atoms: _255  and  _256
REMARK   91  A    between atoms: _256  and  _257
REMARK   92  A    between atoms: _257  and  _258
REMARK   93  A    between atoms: _262  and  _264
REMARK   94  A    between atoms: _264  and  _265
REMARK   95  A    between atoms: _264  and  _267
REMARK   96  A    between atoms: _270  and  _272
REMARK   97  A    between atoms: _272  and  _273
REMARK   98  A    between atoms: _272  and  _275
REMARK   99  A    between atoms: _275  and  _276
REMARK  100  A    between atoms: _276  and  _277
REMARK  101  A    between atoms: _282  and  _284
REMARK  102  A    between atoms: _284  and  _285
REMARK  103  A    between atoms: _284  and  _287
REMARK  104  A    between atoms: _287  and  _288
REMARK  105  A    between atoms: _291  and  _293
REMARK  106  A    between atoms: _293  and  _294
REMARK  107  A    between atoms: _297  and  _299
REMARK  108  A    between atoms: _299  and  _300
REMARK  109  A    between atoms: _299  and  _302
REMARK  110  A    between atoms: _305  and  _307
REMARK  111  A    between atoms: _307  and  _308
REMARK  112  A    between atoms: _307  and  _310
REMARK  113  A    between atoms: _310  and  _311
REMARK  114  A    between atoms: _314  and  _316
REMARK  115  A    between atoms: _316  and  _317
REMARK  116  A    between atoms: _319  and  _321
REMARK  117  A    between atoms: _321  and  _322
REMARK  118  A    between atoms: _324  and  _326
REMARK  119  A    between atoms: _326  and  _327
REMARK  120  A    between atoms: _326  and  _329
REMARK  121  A    between atoms: _329  and  _330
REMARK  122  A    between atoms: _332  and  _334
REMARK  123  A    between atoms: _334  and  _335
REMARK  124  A    between atoms: _334  and  _337
REMARK  125  A    between atoms: _337  and  _338
REMARK  126  A    between atoms: _341  and  _343
REMARK  127  A    between atoms: _343  and  _344
REMARK  128  A    between atoms: _343  and  _346
REMARK  129  A    between atoms: _346  and  _347
REMARK  130  A    between atoms: _350  and  _352
REMARK  131  A    between atoms: _352  and  _353
REMARK  132  A    between atoms: _352  and  _355
REMARK  133  A    between atoms: _355  and  _356
REMARK  134  A    between atoms: _360  and  _361
REMARK  135  A    between atoms: _367  and  _368
REMARK  136  A    between atoms: _373  and  _375
REMARK  137  A    between atoms: _375  and  _376
REMARK  138  A    between atoms: _375  and  _378
REMARK  139  A    between atoms: _378  and  _379
REMARK  140  A    between atoms: _382  and  _384
REMARK  141  A    between atoms: _384  and  _385
REMARK  142  A    between atoms: _384  and  _387
REMARK  143  A    between atoms: _387  and  _388
REMARK  144  A    between atoms: _391  and  _393
REMARK  145  A    between atoms: _393  and  _394
REMARK  146  A    between atoms: _393  and  _396
REMARK  147  A    between atoms: _398  and  _400
REMARK  148  A    between atoms: _400  and  _401
REMARK  149  A    between atoms: _400  and  _403
REMARK  150  A    between atoms: _406  and  _408
REMARK  151  A    between atoms: _408  and  _409
REMARK  152  A    between atoms: _408  and  _411
REMARK  153  A    between atoms: _411  and  _412
REMARK  154  A    between atoms: _422  and  _424
REMARK  155  A    between atoms: _424  and  _425
REMARK  156  A    between atoms: _424  and  _427
REMARK  157  A    between atoms: _427  and  _428
REMARK  158  A    between atoms: _433  and  _435
REMARK  159  A    between atoms: _435  and  _436
REMARK  160  A    between atoms: _435  and  _438
REMARK  161  A    between atoms: _438  and  _439
REMARK  162  A    between atoms: _439  and  _440
REMARK  163  A    between atoms: _440  and  _441
REMARK                            x       y       z     vdW  Elec       q    Type
REMARK                         _______ _______ _______ _____ _____    ______ ____
ROOT
ATOM      1  C   CYS A   1      -5.810   7.483  23.907  0.00  0.00    +0.239 C 
ATOM      2  N   VAL A   2      -5.880   6.174  24.157  0.00  0.00    -0.298 N 
ATOM      3  H   VAL A   2      -5.058   5.687  24.567  0.00  0.00    +0.150 HD
ATOM      4  O   CYS A   1      -6.784   8.144  23.559  0.00  0.00    -0.274 OA
ENDROOT
BRANCH   1   5
ATOM      5  CA  CYS A   1      -4.428   8.127  24.014  0.00  0.00    +0.156 C 
BRANCH   5   6
ATOM      6  N   CYS A   1      -3.350   7.102  24.170  0.00  0.00    -0.237 NA
ATOM      7  H   CYS A   1      -3.278   6.333  23.474  0.00  0.00    +0.142 HD
ENDBRANCH   5   6
BRANCH   5   8
ATOM      8  CB  CYS A   1      -4.144   8.950  22.763  0.00  0.00    +0.095 C 
ATOM      9  SG  CYS A   1      -4.098   7.932  21.230  0.00  0.00    -0.080 S 
ENDBRANCH   5   8
ENDBRANCH   1   5
BRANCH   2  10
ATOM     10  CA  VAL A   2      -7.113   5.402  23.860  0.00  0.00    +0.137 C 
BRANCH  10  11
ATOM     11  CB  VAL A   2      -6.829   4.134  23.000  0.00  0.00    +0.026 C 
ATOM     12  CG2 VAL A   2      -8.199   3.418  22.696  0.00  0.00    +0.002 C 
ATOM     13  CG1 VAL A   2      -6.128   4.488  21.680  0.00  0.00    +0.002 C 
ENDBRANCH  10  11
BRANCH  10  14
ATOM     14  C   VAL A   2      -7.932   4.967  25.087  0.00  0.00    +0.227 C 
ATOM     15  O   VAL A   2      -7.418   4.320  25.988  0.00  0.00    -0.286 OA
ENDBRANCH  10  14
ENDBRANCH   2  10
TORSDOF 6
REMARK  Name = ../refined-set-2016/3sap/3sap_pocket.pdb
REMARK  163 active torsions:
REMARK  status: ('A' for Active; 'I' for Inactive)
REMARK    1  A    between atoms: _1  and  _3
REMARK    2  A    between atoms: _3  and  _4
REMARK    3  A    between atoms: _3  and  _6
REMARK    4  A    between atoms: _6  and  _7
REMARK    5  A    between atoms: _17  and  _19
REMARK    6  A    between atoms: _19  and  _20
REMARK    7  A    between atoms: _19  and  _22
REMARK    8  A    between atoms: _22  and  _23
REMARK    9  A    between atoms: _28  and  _29
REMARK   10  A    between atoms: _31  and  _33
REMARK   11  A    between atoms: _33  and  _34
REMARK   12  A    between atoms: _33  and  _36
REMARK   13  A    between atoms: _36  and  _37
REMARK   14  A    between atoms: _43  and  _45
REMARK   15  A    between atoms: _45  and  _46
REMARK   16  A    between atoms: _45  and  _48
REMARK   17  A    between atoms: _48  and  _49
REMARK   18  A    between atoms: _52  and  _53
REMARK   19  A    between atoms: _58  and  _60
REMARK   20  A    between atoms: _60  and  _61
REMARK   21  A    between atoms: _60  and  _63
REMARK   22  A    between atoms: _63  and  _64
REMARK   23  A    between atoms: _69  and  _71
REMARK   24  A    between atoms: _71  and  _72
REMARK   25  A    between atoms: _75  and  _77
REMARK   26  A    between atoms: _77  and  _78
REMARK   27  A    between atoms: _77  and  _80
REMARK   28  A    between atoms: _80  and  _81
REMARK   29  A    between atoms: _86  and  _88
REMARK   30  A    between atoms: _88  and  _89
REMARK   31  A    between atoms: _88  and  _91
REMARK   32  A    between atoms: _91  and  _92
REMARK   33  A    between atoms: _95  and  _97
REMARK   34  A    between atoms: _97  and  _98
REMARK   35  A    between atoms: _97  and  _100
REMARK   36  A    between atoms: _100  and  _101
REMARK   37  A    between atoms: _101  and  _102
REMARK   38  A    between atoms: _107  and  _109
REMARK   39  A    between atoms: _109  and  _110
REMARK   40  A    between atoms: _109  and  _112
REMARK   41  A    between atoms: _112  and  _113
REMARK   42  A    between atoms: _119  and  _121
REMARK   43  A    between atoms: _132  and  _135
REMARK   44  A    between atoms: _135  and  _136
REMARK   45  A    between atoms: _144  and  _145
REMARK   46  A    between atoms: _153  and  _155
REMARK   47  A    between atoms: _155  and  _156
REMARK   48  A    between atoms: _155  and  _158
REMARK   49  A    between atoms: _158  and  _159
REMARK   50  A    between atoms: _159  and  _160
REMARK   51  A    between atoms: _163  and  _165
REMARK   52  A    between atoms: _165  and  _166
REMARK   53  A    between atoms: _165  and  _168
REMARK   54  A    between atoms: _168  and  _169
REMARK   55  A    between atoms: _174  and  _176
REMARK   56  A    between atoms: _176  and  _177
REMARK   57  A    between atoms: _176  and  _179
REMARK   58  A    between atoms: _179  and  _180
REMARK   59  A    between atoms: _180  and  _181
REMARK   60  A    between atoms: _184  and  _186
REMARK   61  A    between atoms: _186  and  _187
REMARK   62  A    between atoms: _186  and  _189
REMARK   63  A    between atoms: _189  and  _190
REMARK   64  A    between atoms: _193  and  _195
REMARK   65  A    between atoms: _195  and  _196
REMARK   66  A    between atoms: _195  and  _198
REMARK   67  A    between atoms: _198  and  _199
REMARK   68  A    between atoms: _200  and  ZN_450
REMARK   69  A    between atoms: _204  and  _206
REMARK   70  A    between atoms: _206  and  _207
REMARK   71  A    between atoms: _206  and  _209
REMARK   72  A    between atoms: _209  and  _210
REMARK   73  A    between atoms: _213  and  _215
REMARK   74  A    between atoms: _215  and  _216
REMARK   75  A    between atoms: _215  and  _218
REMARK   76  A    between atoms: _221  and  _223
REMARK   77  A    between atoms: _223  and  _224
REMARK   78  A    between atoms: _223  and  _226
REMARK   79  A    between atoms: _226  and  _227
REMARK   80  A    between atoms: _232  and  _234
REMARK   81  A    between atoms: _234  and  _235
REMARK   82  A    between atoms: _234  and  _237
REMARK   83  A    between atoms: _237  and  _238
REMARK   84  A    between atoms: _244  and  _246
REMARK   85  A    between atoms: _246  and  _247
REMARK   86  A    between atoms: _249  and  _251
REMARK   87  A    between atoms: _251  and  _252
REMARK   88  A    between atoms: _251  and  _254
REMARK   89  A    between atoms: _254  and  _255
REMARK   90  A    between atoms: _255  and  _256
REMARK   91  A    between atoms: _256  and  _257
REMARK   92  A    between atoms: _257  and  _258
REMARK   93  A    between atoms: _262  and  _264
REMARK   94  A    between atoms: _264  and  _265
REMARK   95  A    between atoms: _264  and  _267
REMARK   96  A    between atoms: _270  and  _272
REMARK   97  A    between atoms: _272  and  _273
REMARK   98  A    between atoms: _272  and  _275
REMARK   99  A    between atoms: _275  and  _276
REMARK  100  A    between atoms: _276  and  _277
REMARK  101  A    between atoms: _282  and  _284
REMARK  102  A    between atoms: _284  and  _285
REMARK  103  A    between atoms: _284  and  _287
REMARK  104  A    between atoms: _287  and  _288
REMARK  105  A    between atoms: _291  and  _293
REMARK  106  A    between atoms: _293  and  _294
REMARK  107  A    between atoms: _297  and  _299
REMARK  108  A    between atoms: _299  and  _300
REMARK  109  A    between atoms: _299  and  _302
REMARK  110  A    between atoms: _305  and  _307
REMARK  111  A    between atoms: _307  and  _308
REMARK  112  A    between atoms: _307  and  _310
REMARK  113  A    between atoms: _310  and  _311
REMARK  114  A    between atoms: _314  and  _316
REMARK  115  A    between atoms: _316  and  _317
REMARK  116  A    between atoms: _319  and  _321
REMARK  117  A    between atoms: _321  and  _322
REMARK  118  A    between atoms: _324  and  _326
REMARK  119  A    between atoms: _326  and  _327
REMARK  120  A    between atoms: _326  and  _329
REMARK  121  A    between atoms: _329  and  _330
REMARK  122  A    between atoms: _332  and  _334
REMARK  123  A    between atoms: _334  and  _335
REMARK  124  A    between atoms: _334  and  _337
REMARK  125  A    between atoms: _337  and  _338
REMARK  126  A    between atoms: _341  and  _343
REMARK  127  A    between atoms: _343  and  _344
REMARK  128  A    between atoms: _343  and  _346
REMARK  129  A    between atoms: _346  and  _347
REMARK  130  A    between atoms: _350  and  _352
REMARK  131  A    between atoms: _352  and  _353
REMARK  132  A    between atoms: _352  and  _355
REMARK  133  A    between atoms: _355  and  _356
REMARK  134  A    between atoms: _360  and  _361
REMARK  135  A    between atoms: _367  and  _368
REMARK  136  A    between atoms: _373  and  _375
REMARK  137  A    between atoms: _375  and  _376
REMARK  138  A    between atoms: _375  and  _378
REMARK  139  A    between atoms: _378  and  _379
REMARK  140  A    between atoms: _382  and  _384
REMARK  141  A    between atoms: _384  and  _385
REMARK  142  A    between atoms: _384  and  _387
REMARK  143  A    between atoms: _387  and  _388
REMARK  144  A    between atoms: _391  and  _393
REMARK  145  A    between atoms: _393  and  _394
REMARK  146  A    between atoms: _393  and  _396
REMARK  147  A    between atoms: _398  and  _400
REMARK  148  A    between atoms: _400  and  _401
REMARK  149  A    between atoms: _400  and  _403
REMARK  150  A    between atoms: _406  and  _408
REMARK  151  A    between atoms: _408  and  _409
REMARK  152  A    between atoms: _408  and  _411
REMARK  153  A    between atoms: _411  and  _412
REMARK  154  A    between atoms: _422  and  _424
REMARK  155  A    between atoms: _424  and  _425
REMARK  156  A    between atoms: _424  and  _427
REMARK  157  A    between atoms: _427  and  _428
REMARK  158  A    between atoms: _433  and  _435
REMARK  159  A    between atoms: _435  and  _436
REMARK  160  A    between atoms: _435  and  _438
REMARK  161  A    between atoms: _438  and  _439
REMARK  162  A    between atoms: _439  and  _440
REMARK  163  A    between atoms: _440  and  _441
REMARK                            x       y       z     vdW  Elec       q    Type
REMARK                         _______ _______ _______ _____ _____    ______ ____
ROOT
ATOM      1  CG  TRP A   1      -8.632  -0.001  24.103  0.00  0.00    -0.002 A 
ATOM      2  CD1 TRP A   1      -7.382   0.583  24.275  0.00  0.00    +0.068 A 
ATOM      3  NE1 TRP A   1      -6.685   0.563  23.087  0.00  0.00    -0.352 N 
ATOM      4  HE1 TRP A   1      -5.730   0.948  22.940  0.00  0.00    +0.166 HD
ATOM      5  CE2 TRP A   1      -7.460  -0.052  22.122  0.00  0.00    +0.056 A 
ATOM      6  CZ2 TRP A   1      -7.189  -0.301  20.787  0.00  0.00    +0.017 A 
ATOM      7  CH2 TRP A   1      -8.175  -0.945  20.051  0.00  0.00    +0.001 A 
ATOM      8  CZ3 TRP A   1      -9.444  -1.281  20.627  0.00  0.00    +0.000 A 
ATOM      9  CE3 TRP A   1      -9.710  -1.008  21.948  0.00  0.00    +0.001 A 
ATOM     10  CD2 TRP A   1      -8.706  -0.403  22.730  0.00  0.00    +0.013 A 
ENDROOT
BRANCH   1  11
ATOM     11  CB  TRP A   1      -9.715  -0.129  25.092  0.00  0.00    +0.053 C 
BRANCH  11  12
ATOM     12  CA  TRP A   1     -10.735   1.007  24.906  0.00  0.00    +0.137 C 
BRANCH  12  13
ATOM     13  N   TRP A   1     -10.288   2.217  25.603  0.00  0.00    -0.239 NA
ATOM     14  H   TRP A   1      -9.674   2.136  26.438  0.00  0.00    +0.142 HD
ENDBRANCH  12  13
BRANCH  12  15
ATOM     15  C   TRP A   1     -12.129   0.573  25.393  0.00  0.00    +0.224 C 
ATOM     16  O   TRP A   1     -12.365   0.486  26.590  0.00  0.00    -0.287 OA
ENDBRANCH  12  15
ENDBRANCH  11  12
ENDBRANCH   1  11
TORSDOF 4
REMARK  Name = ../refined-set-2016/3sap/3sap_pocket.pdb
REMARK  163 active torsions:
REMARK  status: ('A' for Active; 'I' for Inactive)
REMARK    1  A    between atoms: _1  and  _3
REMARK    2  A    between atoms: _3  and  _4
REMARK    3  A    between atoms: _3  and  _6
REMARK    4  A    between atoms: _6  and  _7
REMARK    5  A    between atoms: _17  and  _19
REMARK    6  A    between atoms: _19  and  _20
REMARK    7  A    between atoms: _19  and  _22
REMARK    8  A    between atoms: _22  and  _23
REMARK    9  A    between atoms: _28  and  _29
REMARK   10  A    between atoms: _31  and  _33
REMARK   11  A    between atoms: _33  and  _34
REMARK   12  A    between atoms: _33  and  _36
REMARK   13  A    between atoms: _36  and  _37
REMARK   14  A    between atoms: _43  and  _45
REMARK   15  A    between atoms: _45  and  _46
REMARK   16  A    between atoms: _45  and  _48
REMARK   17  A    between atoms: _48  and  _49
REMARK   18  A    between atoms: _52  and  _53
REMARK   19  A    between atoms: _58  and  _60
REMARK   20  A    between atoms: _60  and  _61
REMARK   21  A    between atoms: _60  and  _63
REMARK   22  A    between atoms: _63  and  _64
REMARK   23  A    between atoms: _69  and  _71
REMARK   24  A    between atoms: _71  and  _72
REMARK   25  A    between atoms: _75  and  _77
REMARK   26  A    between atoms: _77  and  _78
REMARK   27  A    between atoms: _77  and  _80
REMARK   28  A    between atoms: _80  and  _81
REMARK   29  A    between atoms: _86  and  _88
REMARK   30  A    between atoms: _88  and  _89
REMARK   31  A    between atoms: _88  and  _91
REMARK   32  A    between atoms: _91  and  _92
REMARK   33  A    between atoms: _95  and  _97
REMARK   34  A    between atoms: _97  and  _98
REMARK   35  A    between atoms: _97  and  _100
REMARK   36  A    between atoms: _100  and  _101
REMARK   37  A    between atoms: _101  and  _102
REMARK   38  A    between atoms: _107  and  _109
REMARK   39  A    between atoms: _109  and  _110
REMARK   40  A    between atoms: _109  and  _112
REMARK   41  A    between atoms: _112  and  _113
REMARK   42  A    between atoms: _119  and  _121
REMARK   43  A    between atoms: _132  and  _135
REMARK   44  A    between atoms: _135  and  _136
REMARK   45  A    between atoms: _144  and  _145
REMARK   46  A    between atoms: _153  and  _155
REMARK   47  A    between atoms: _155  and  _156
REMARK   48  A    between atoms: _155  and  _158
REMARK   49  A    between atoms: _158  and  _159
REMARK   50  A    between atoms: _159  and  _160
REMARK   51  A    between atoms: _163  and  _165
REMARK   52  A    between atoms: _165  and  _166
REMARK   53  A    between atoms: _165  and  _168
REMARK   54  A    between atoms: _168  and  _169
REMARK   55  A    between atoms: _174  and  _176
REMARK   56  A    between atoms: _176  and  _177
REMARK   57  A    between atoms: _176  and  _179
REMARK   58  A    between atoms: _179  and  _180
REMARK   59  A    between atoms: _180  and  _181
REMARK   60  A    between atoms: _184  and  _186
REMARK   61  A    between atoms: _186  and  _187
REMARK   62  A    between atoms: _186  and  _189
REMARK   63  A    between atoms: _189  and  _190
REMARK   64  A    between atoms: _193  and  _195
REMARK   65  A    between atoms: _195  and  _196
REMARK   66  A    between atoms: _195  and  _198
REMARK   67  A    between atoms: _198  and  _199
REMARK   68  A    between atoms: _200  and  ZN_450
REMARK   69  A    between atoms: _204  and  _206
REMARK   70  A    between atoms: _206  and  _207
REMARK   71  A    between atoms: _206  and  _209
REMARK   72  A    between atoms: _209  and  _210
REMARK   73  A    between atoms: _213  and  _215
REMARK   74  A    between atoms: _215  and  _216
REMARK   75  A    between atoms: _215  and  _218
REMARK   76  A    between atoms: _221  and  _223
REMARK   77  A    between atoms: _223  and  _224
REMARK   78  A    between atoms: _223  and  _226
REMARK   79  A    between atoms: _226  and  _227
REMARK   80  A    between atoms: _232  and  _234
REMARK   81  A    between atoms: _234  and  _235
REMARK   82  A    between atoms: _234  and  _237
REMARK   83  A    between atoms: _237  and  _238
REMARK   84  A    between atoms: _244  and  _246
REMARK   85  A    between atoms: _246  and  _247
REMARK   86  A    between atoms: _249  and  _251
REMARK   87  A    between atoms: _251  and  _252
REMARK   88  A    between atoms: _251  and  _254
REMARK   89  A    between atoms: _254  and  _255
REMARK   90  A    between atoms: _255  and  _256
REMARK   91  A    between atoms: _256  and  _257
REMARK   92  A    between atoms: _257  and  _258
REMARK   93  A    between atoms: _262  and  _264
REMARK   94  A    between atoms: _264  and  _265
REMARK   95  A    between atoms: _264  and  _267
REMARK   96  A    between atoms: _270  and  _272
REMARK   97  A    between atoms: _272  and  _273
REMARK   98  A    between atoms: _272  and  _275
REMARK   99  A    between atoms: _275  and  _276
REMARK  100  A    between atoms: _276  and  _277
REMARK  101  A    between atoms: _282  and  _284
REMARK  102  A    between atoms: _284  and  _285
REMARK  103  A    between atoms: _284  and  _287
REMARK  104  A    between atoms: _287  and  _288
REMARK  105  A    between atoms: _291  and  _293
REMARK  106  A    between atoms: _293  and  _294
REMARK  107  A    between atoms: _297  and  _299
REMARK  108  A    between atoms: _299  and  _300
REMARK  109  A    between atoms: _299  and  _302
REMARK  110  A    between atoms: _305  and  _307
REMARK  111  A    between atoms: _307  and  _308
REMARK  112  A    between atoms: _307  and  _310
REMARK  113  A    between atoms: _310  and  _311
REMARK  114  A    between atoms: _314  and  _316
REMARK  115  A    between atoms: _316  and  _317
REMARK  116  A    between atoms: _319  and  _321
REMARK  117  A    between atoms: _321  and  _322
REMARK  118  A    between atoms: _324  and  _326
REMARK  119  A    between atoms: _326  and  _327
REMARK  120  A    between atoms: _326  and  _329
REMARK  121  A    between atoms: _329  and  _330
REMARK  122  A    between atoms: _332  and  _334
REMARK  123  A    between atoms: _334  and  _335
REMARK  124  A    between atoms: _334  and  _337
REMARK  125  A    between atoms: _337  and  _338
REMARK  126  A    between atoms: _341  and  _343
REMARK  127  A    between atoms: _343  and  _344
REMARK  128  A    between atoms: _343  and  _346
REMARK  129  A    between atoms: _346  and  _347
REMARK  130  A    between atoms: _350  and  _352
REMARK  131  A    between atoms: _352  and  _353
REMARK  132  A    between atoms: _352  and  _355
REMARK  133  A    between atoms: _355  and  _356
REMARK  134  A    between atoms: _360  and  _361
REMARK  135  A    between atoms: _367  and  _368
REMARK  136  A    between atoms: _373  and  _375
REMARK  137  A    between atoms: _375  and  _376
REMARK  138  A    between atoms: _375  and  _378
REMARK  139  A    between atoms: _378  and  _379
REMARK  140  A    between atoms: _382  and  _384
REMARK  141  A    between atoms: _384  and  _385
REMARK  142  A    between atoms: _384  and  _387
REMARK  143  A    between atoms: _387  and  _388
REMARK  144  A    between atoms: _391  and  _393
REMARK  145  A    between atoms: _393  and  _394
REMARK  146  A    between atoms: _393  and  _396
REMARK  147  A    between atoms: _398  and  _400
REMARK  148  A    between atoms: _400  and  _401
REMARK  149  A    between atoms: _400  and  _403
REMARK  150  A    between atoms: _406  and  _408
REMARK  151  A    between atoms: _408  and  _409
REMARK  152  A    between atoms: _408  and  _411
REMARK  153  A    between atoms: _411  and  _412
REMARK  154  A    between atoms: _422  and  _424
REMARK  155  A    between atoms: _424  and  _425
REMARK  156  A    between atoms: _424  and  _427
REMARK  157  A    between atoms: _427  and  _428
REMARK  158  A    between atoms: _433  and  _435
REMARK  159  A    between atoms: _435  and  _436
REMARK  160  A    between atoms: _435  and  _438
REMARK  161  A    between atoms: _438  and  _439
REMARK  162  A    between atoms: _439  and  _440
REMARK  163  A    between atoms: _440  and  _441
REMARK                            x       y       z     vdW  Elec       q    Type
REMARK                         _______ _______ _______ _____ _____    ______ ____
ROOT
ATOM      1  CB  ASN A   1      -1.880  -7.281  10.302  0.00  0.00    +0.110 C 
ENDROOT
BRANCH   1   2
ATOM      2  CG  ASN A   1      -3.379  -7.478  10.105  0.00  0.00    +0.221 C 
ATOM      3  OD1 ASN A   1      -3.980  -8.408  10.669  0.00  0.00    -0.275 OA
ATOM      4  ND2 ASN A   1      -4.005  -6.581   9.314  0.00  0.00    -0.329 N 
ATOM      5 HD21 ASN A   1      -5.031  -6.653   9.157  0.00  0.00    +0.145 HD
ATOM      6 HD22 ASN A   1      -3.462  -5.818   8.862  0.00  0.00    +0.145 HD
ENDBRANCH   1   2
BRANCH   1   7
ATOM      7  CA  ASN A   1      -1.301  -8.149  11.439  0.00  0.00    +0.142 C 
BRANCH   7   8
ATOM      8  N   ASN A   1      -1.580  -9.586  11.203  0.00  0.00    -0.239 NA
ATOM      9  H   ASN A   1      -2.473  -9.851  10.741  0.00  0.00    +0.142 HD
ENDBRANCH   7   8
BRANCH   7  10
ATOM     10  C   ASN A   1      -1.878  -7.736  12.818  0.00  0.00    +0.225 C 
ATOM     11  O   ASN A   1      -2.605  -6.733  12.918  0.00  0.00    -0.287 OA
ENDBRANCH   7  10
ENDBRANCH   1   7
TORSDOF 4
REMARK  Name = ../refined-set-2016/3sap/3sap_pocket.pdb
REMARK  163 active torsions:
REMARK  status: ('A' for Active; 'I' for Inactive)
REMARK    1  A    between atoms: _1  and  _3
REMARK    2  A    between atoms: _3  and  _4
REMARK    3  A    between atoms: _3  and  _6
REMARK    4  A    between atoms: _6  and  _7
REMARK    5  A    between atoms: _17  and  _19
REMARK    6  A    between atoms: _19  and  _20
REMARK    7  A    between atoms: _19  and  _22
REMARK    8  A    between atoms: _22  and  _23
REMARK    9  A    between atoms: _28  and  _29
REMARK   10  A    between atoms: _31  and  _33
REMARK   11  A    between atoms: _33  and  _34
REMARK   12  A    between atoms: _33  and  _36
REMARK   13  A    between atoms: _36  and  _37
REMARK   14  A    between atoms: _43  and  _45
REMARK   15  A    between atoms: _45  and  _46
REMARK   16  A    between atoms: _45  and  _48
REMARK   17  A    between atoms: _48  and  _49
REMARK   18  A    between atoms: _52  and  _53
REMARK   19  A    between atoms: _58  and  _60
REMARK   20  A    between atoms: _60  and  _61
REMARK   21  A    between atoms: _60  and  _63
REMARK   22  A    between atoms: _63  and  _64
REMARK   23  A    between atoms: _69  and  _71
REMARK   24  A    between atoms: _71  and  _72
REMARK   25  A    between atoms: _75  and  _77
REMARK   26  A    between atoms: _77  and  _78
REMARK   27  A    between atoms: _77  and  _80
REMARK   28  A    between atoms: _80  and  _81
REMARK   29  A    between atoms: _86  and  _88
REMARK   30  A    between atoms: _88  and  _89
REMARK   31  A    between atoms: _88  and  _91
REMARK   32  A    between atoms: _91  and  _92
REMARK   33  A    between atoms: _95  and  _97
REMARK   34  A    between atoms: _97  and  _98
REMARK   35  A    between atoms: _97  and  _100
REMARK   36  A    between atoms: _100  and  _101
REMARK   37  A    between atoms: _101  and  _102
REMARK   38  A    between atoms: _107  and  _109
REMARK   39  A    between atoms: _109  and  _110
REMARK   40  A    between atoms: _109  and  _112
REMARK   41  A    between atoms: _112  and  _113
REMARK   42  A    between atoms: _119  and  _121
REMARK   43  A    between atoms: _132  and  _135
REMARK   44  A    between atoms: _135  and  _136
REMARK   45  A    between atoms: _144  and  _145
REMARK   46  A    between atoms: _153  and  _155
REMARK   47  A    between atoms: _155  and  _156
REMARK   48  A    between atoms: _155  and  _158
REMARK   49  A    between atoms: _158  and  _159
REMARK   50  A    between atoms: _159  and  _160
REMARK   51  A    between atoms: _163  and  _165
REMARK   52  A    between atoms: _165  and  _166
REMARK   53  A    between atoms: _165  and  _168
REMARK   54  A    between atoms: _168  and  _169
REMARK   55  A    between atoms: _174  and  _176
REMARK   56  A    between atoms: _176  and  _177
REMARK   57  A    between atoms: _176  and  _179
REMARK   58  A    between atoms: _179  and  _180
REMARK   59  A    between atoms: _180  and  _181
REMARK   60  A    between atoms: _184  and  _186
REMARK   61  A    between atoms: _186  and  _187
REMARK   62  A    between atoms: _186  and  _189
REMARK   63  A    between atoms: _189  and  _190
REMARK   64  A    between atoms: _193  and  _195
REMARK   65  A    between atoms: _195  and  _196
REMARK   66  A    between atoms: _195  and  _198
REMARK   67  A    between atoms: _198  and  _199
REMARK   68  A    between atoms: _200  and  ZN_450
REMARK   69  A    between atoms: _204  and  _206
REMARK   70  A    between atoms: _206  and  _207
REMARK   71  A    between atoms: _206  and  _209
REMARK   72  A    between atoms: _209  and  _210
REMARK   73  A    between atoms: _213  and  _215
REMARK   74  A    between atoms: _215  and  _216
REMARK   75  A    between atoms: _215  and  _218
REMARK   76  A    between atoms: _221  and  _223
REMARK   77  A    between atoms: _223  and  _224
REMARK   78  A    between atoms: _223  and  _226
REMARK   79  A    between atoms: _226  and  _227
REMARK   80  A    between atoms: _232  and  _234
REMARK   81  A    between atoms: _234  and  _235
REMARK   82  A    between atoms: _234  and  _237
REMARK   83  A    between atoms: _237  and  _238
REMARK   84  A    between atoms: _244  and  _246
REMARK   85  A    between atoms: _246  and  _247
REMARK   86  A    between atoms: _249  and  _251
REMARK   87  A    between atoms: _251  and  _252
REMARK   88  A    between atoms: _251  and  _254
REMARK   89  A    between atoms: _254  and  _255
REMARK   90  A    between atoms: _255  and  _256
REMARK   91  A    between atoms: _256  and  _257
REMARK   92  A    between atoms: _257  and  _258
REMARK   93  A    between atoms: _262  and  _264
REMARK   94  A    between atoms: _264  and  _265
REMARK   95  A    between atoms: _264  and  _267
REMARK   96  A    between atoms: _270  and  _272
REMARK   97  A    between atoms: _272  and  _273
REMARK   98  A    between atoms: _272  and  _275
REMARK   99  A    between atoms: _275  and  _276
REMARK  100  A    between atoms: _276  and  _277
REMARK  101  A    between atoms: _282  and  _284
REMARK  102  A    between atoms: _284  and  _285
REMARK  103  A    between atoms: _284  and  _287
REMARK  104  A    between atoms: _287  and  _288
REMARK  105  A    between atoms: _291  and  _293
REMARK  106  A    between atoms: _293  and  _294
REMARK  107  A    between atoms: _297  and  _299
REMARK  108  A    between atoms: _299  and  _300
REMARK  109  A    between atoms: _299  and  _302
REMARK  110  A    between atoms: _305  and  _307
REMARK  111  A    between atoms: _307  and  _308
REMARK  112  A    between atoms: _307  and  _310
REMARK  113  A    between atoms: _310  and  _311
REMARK  114  A    between atoms: _314  and  _316
REMARK  115  A    between atoms: _316  and  _317
REMARK  116  A    between atoms: _319  and  _321
REMARK  117  A    between atoms: _321  and  _322
REMARK  118  A    between atoms: _324  and  _326
REMARK  119  A    between atoms: _326  and  _327
REMARK  120  A    between atoms: _326  and  _329
REMARK  121  A    between atoms: _329  and  _330
REMARK  122  A    between atoms: _332  and  _334
REMARK  123  A    between atoms: _334  and  _335
REMARK  124  A    between atoms: _334  and  _337
REMARK  125  A    between atoms: _337  and  _338
REMARK  126  A    between atoms: _341  and  _343
REMARK  127  A    between atoms: _343  and  _344
REMARK  128  A    between atoms: _343  and  _346
REMARK  129  A    between atoms: _346  and  _347
REMARK  130  A    between atoms: _350  and  _352
REMARK  131  A    between atoms: _352  and  _353
REMARK  132  A    between atoms: _352  and  _355
REMARK  133  A    between atoms: _355  and  _356
REMARK  134  A    between atoms: _360  and  _361
REMARK  135  A    between atoms: _367  and  _368
REMARK  136  A    between atoms: _373  and  _375
REMARK  137  A    between atoms: _375  and  _376
REMARK  138  A    between atoms: _375  and  _378
REMARK  139  A    between atoms: _378  and  _379
REMARK  140  A    between atoms: _382  and  _384
REMARK  141  A    between atoms: _384  and  _385
REMARK  142  A    between atoms: _384  and  _387
REMARK  143  A    between atoms: _387  and  _388
REMARK  144  A    between atoms: _391  and  _393
REMARK  145  A    between atoms: _393  and  _394
REMARK  146  A    between atoms: _393  and  _396
REMARK  147  A    between atoms: _398  and  _400
REMARK  148  A    between atoms: _400  and  _401
REMARK  149  A    between atoms: _400  and  _403
REMARK  150  A    between atoms: _406  and  _408
REMARK  151  A    between atoms: _408  and  _409
REMARK  152  A    between atoms: _408  and  _411
REMARK  153  A    between atoms: _411  and  _412
REMARK  154  A    between atoms: _422  and  _424
REMARK  155  A    between atoms: _424  and  _425
REMARK  156  A    between atoms: _424  and  _427
REMARK  157  A    between atoms: _427  and  _428
REMARK  158  A    between atoms: _433  and  _435
REMARK  159  A    between atoms: _435  and  _436
REMARK  160  A    between atoms: _435  and  _438
REMARK  161  A    between atoms: _438  and  _439
REMARK  162  A    between atoms: _439  and  _440
REMARK  163  A    between atoms: _440  and  _441
REMARK                            x       y       z     vdW  Elec       q    Type
REMARK                         _______ _______ _______ _____ _____    ______ ____
ROOT
ATOM      1  NE  ARG A   1       2.330  -3.813  21.123  0.00  0.00    -0.265 N 
ATOM      2  CZ  ARG A   1       2.516  -2.775  21.939  0.00  0.00    +0.342 C 
ATOM      3  NH2 ARG A   1       3.722  -2.560  22.472  0.00  0.00    -0.292 N 
ATOM      4 HH21 ARG A   1       3.872  -1.752  23.109  0.00  0.00    +0.255 HD
ATOM      5 HH22 ARG A   1       4.510  -3.201  22.250  0.00  0.00    +0.255 HD
ATOM      6  NH1 ARG A   1       1.508  -1.955  22.232  0.00  0.00    -0.292 N 
ATOM      7 HH11 ARG A   1       1.663  -1.148  22.869  0.00  0.00    +0.255 HD
ATOM      8 HH12 ARG A   1       0.566  -2.122  21.823  0.00  0.00    +0.255 HD
ATOM      9  HE  ARG A   1       3.137  -4.448  20.959  0.00  0.00    +0.259 HD
ENDROOT
BRANCH   1  10
ATOM     10  CD  ARG A   1       1.053  -4.130  20.430  0.00  0.00    +0.174 C 
BRANCH  10  11
ATOM     11  CG  ARG A   1       1.121  -5.485  19.742  0.00  0.00    +0.045 C 
BRANCH  11  12
ATOM     12  CB  ARG A   1      -0.021  -5.713  18.774  0.00  0.00    +0.029 C 
BRANCH  12  13
ATOM     13  CA  ARG A   1      -0.074  -7.169  18.259  0.00  0.00    +0.133 C 
BRANCH  13  14
ATOM     14  N   ARG A   1      -1.006  -7.268  17.142  0.00  0.00    -0.239 NA
ATOM     15  H   ARG A   1      -1.814  -6.614  17.111  0.00  0.00    +0.142 HD
ENDBRANCH  13  14
BRANCH  13  16
ATOM     16  C   ARG A   1      -0.561  -8.085  19.387  0.00  0.00    +0.224 C 
ATOM     17  O   ARG A   1      -1.755  -8.091  19.709  0.00  0.00    -0.287 OA
ENDBRANCH  13  16
ENDBRANCH  12  13
ENDBRANCH  11  12
ENDBRANCH  10  11
ENDBRANCH   1  10
TORSDOF 6
REMARK  Name = ../refined-set-2016/3sap/3sap_pocket.pdb
REMARK  163 active torsions:
REMARK  status: ('A' for Active; 'I' for Inactive)
REMARK    1  A    between atoms: _1  and  _3
REMARK    2  A    between atoms: _3  and  _4
REMARK    3  A    between atoms: _3  and  _6
REMARK    4  A    between atoms: _6  and  _7
REMARK    5  A    between atoms: _17  and  _19
REMARK    6  A    between atoms: _19  and  _20
REMARK    7  A    between atoms: _19  and  _22
REMARK    8  A    between atoms: _22  and  _23
REMARK    9  A    between atoms: _28  and  _29
REMARK   10  A    between atoms: _31  and  _33
REMARK   11  A    between atoms: _33  and  _34
REMARK   12  A    between atoms: _33  and  _36
REMARK   13  A    between atoms: _36  and  _37
REMARK   14  A    between atoms: _43  and  _45
REMARK   15  A    between atoms: _45  and  _46
REMARK   16  A    between atoms: _45  and  _48
REMARK   17  A    between atoms: _48  and  _49
REMARK   18  A    between atoms: _52  and  _53
REMARK   19  A    between atoms: _58  and  _60
REMARK   20  A    between atoms: _60  and  _61
REMARK   21  A    between atoms: _60  and  _63
REMARK   22  A    between atoms: _63  and  _64
REMARK   23  A    between atoms: _69  and  _71
REMARK   24  A    between atoms: _71  and  _72
REMARK   25  A    between atoms: _75  and  _77
REMARK   26  A    between atoms: _77  and  _78
REMARK   27  A    between atoms: _77  and  _80
REMARK   28  A    between atoms: _80  and  _81
REMARK   29  A    between atoms: _86  and  _88
REMARK   30  A    between atoms: _88  and  _89
REMARK   31  A    between atoms: _88  and  _91
REMARK   32  A    between atoms: _91  and  _92
REMARK   33  A    between atoms: _95  and  _97
REMARK   34  A    between atoms: _97  and  _98
REMARK   35  A    between atoms: _97  and  _100
REMARK   36  A    between atoms: _100  and  _101
REMARK   37  A    between atoms: _101  and  _102
REMARK   38  A    between atoms: _107  and  _109
REMARK   39  A    between atoms: _109  and  _110
REMARK   40  A    between atoms: _109  and  _112
REMARK   41  A    between atoms: _112  and  _113
REMARK   42  A    between atoms: _119  and  _121
REMARK   43  A    between atoms: _132  and  _135
REMARK   44  A    between atoms: _135  and  _136
REMARK   45  A    between atoms: _144  and  _145
REMARK   46  A    between atoms: _153  and  _155
REMARK   47  A    between atoms: _155  and  _156
REMARK   48  A    between atoms: _155  and  _158
REMARK   49  A    between atoms: _158  and  _159
REMARK   50  A    between atoms: _159  and  _160
REMARK   51  A    between atoms: _163  and  _165
REMARK   52  A    between atoms: _165  and  _166
REMARK   53  A    between atoms: _165  and  _168
REMARK   54  A    between atoms: _168  and  _169
REMARK   55  A    between atoms: _174  and  _176
REMARK   56  A    between atoms: _176  and  _177
REMARK   57  A    between atoms: _176  and  _179
REMARK   58  A    between atoms: _179  and  _180
REMARK   59  A    between atoms: _180  and  _181
REMARK   60  A    between atoms: _184  and  _186
REMARK   61  A    between atoms: _186  and  _187
REMARK   62  A    between atoms: _186  and  _189
REMARK   63  A    between atoms: _189  and  _190
REMARK   64  A    between atoms: _193  and  _195
REMARK   65  A    between atoms: _195  and  _196
REMARK   66  A    between atoms: _195  and  _198
REMARK   67  A    between atoms: _198  and  _199
REMARK   68  A    between atoms: _200  and  ZN_450
REMARK   69  A    between atoms: _204  and  _206
REMARK   70  A    between atoms: _206  and  _207
REMARK   71  A    between atoms: _206  and  _209
REMARK   72  A    between atoms: _209  and  _210
REMARK   73  A    between atoms: _213  and  _215
REMARK   74  A    between atoms: _215  and  _216
REMARK   75  A    between atoms: _215  and  _218
REMARK   76  A    between atoms: _221  and  _223
REMARK   77  A    between atoms: _223  and  _224
REMARK   78  A    between atoms: _223  and  _226
REMARK   79  A    between atoms: _226  and  _227
REMARK   80  A    between atoms: _232  and  _234
REMARK   81  A    between atoms: _234  and  _235
REMARK   82  A    between atoms: _234  and  _237
REMARK   83  A    between atoms: _237  and  _238
REMARK   84  A    between atoms: _244  and  _246
REMARK   85  A    between atoms: _246  and  _247
REMARK   86  A    between atoms: _249  and  _251
REMARK   87  A    between atoms: _251  and  _252
REMARK   88  A    between atoms: _251  and  _254
REMARK   89  A    between atoms: _254  and  _255
REMARK   90  A    between atoms: _255  and  _256
REMARK   91  A    between atoms: _256  and  _257
REMARK   92  A    between atoms: _257  and  _258
REMARK   93  A    between atoms: _262  and  _264
REMARK   94  A    between atoms: _264  and  _265
REMARK   95  A    between atoms: _264  and  _267
REMARK   96  A    between atoms: _270  and  _272
REMARK   97  A    between atoms: _272  and  _273
REMARK   98  A    between atoms: _272  and  _275
REMARK   99  A    between atoms: _275  and  _276
REMARK  100  A    between atoms: _276  and  _277
REMARK  101  A    between atoms: _282  and  _284
REMARK  102  A    between atoms: _284  and  _285
REMARK  103  A    between atoms: _284  and  _287
REMARK  104  A    between atoms: _287  and  _288
REMARK  105  A    between atoms: _291  and  _293
REMARK  106  A    between atoms: _293  and  _294
REMARK  107  A    between atoms: _297  and  _299
REMARK  108  A    between atoms: _299  and  _300
REMARK  109  A    between atoms: _299  and  _302
REMARK  110  A    between atoms: _305  and  _307
REMARK  111  A    between atoms: _307  and  _308
REMARK  112  A    between atoms: _307  and  _310
REMARK  113  A    between atoms: _310  and  _311
REMARK  114  A    between atoms: _314  and  _316
REMARK  115  A    between atoms: _316  and  _317
REMARK  116  A    between atoms: _319  and  _321
REMARK  117  A    between atoms: _321  and  _322
REMARK  118  A    between atoms: _324  and  _326
REMARK  119  A    between atoms: _326  and  _327
REMARK  120  A    between atoms: _326  and  _329
REMARK  121  A    between atoms: _329  and  _330
REMARK  122  A    between atoms: _332  and  _334
REMARK  123  A    between atoms: _334  and  _335
REMARK  124  A    between atoms: _334  and  _337
REMARK  125  A    between atoms: _337  and  _338
REMARK  126  A    between atoms: _341  and  _343
REMARK  127  A    between atoms: _343  and  _344
REMARK  128  A    between atoms: _343  and  _346
REMARK  129  A    between atoms: _346  and  _347
REMARK  130  A    between atoms: _350  and  _352
REMARK  131  A    between atoms: _352  and  _353
REMARK  132  A    between atoms: _352  and  _355
REMARK  133  A    between atoms: _355  and  _356
REMARK  134  A    between atoms: _360  and  _361
REMARK  135  A    between atoms: _367  and  _368
REMARK  136  A    between atoms: _373  and  _375
REMARK  137  A    between atoms: _375  and  _376
REMARK  138  A    between atoms: _375  and  _378
REMARK  139  A    between atoms: _378  and  _379
REMARK  140  A    between atoms: _382  and  _384
REMARK  141  A    between atoms: _384  and  _385
REMARK  142  A    between atoms: _384  and  _387
REMARK  143  A    between atoms: _387  and  _388
REMARK  144  A    between atoms: _391  and  _393
REMARK  145  A    between atoms: _393  and  _394
REMARK  146  A    between atoms: _393  and  _396
REMARK  147  A    between atoms: _398  and  _400
REMARK  148  A    between atoms: _400  and  _401
REMARK  149  A    between atoms: _400  and  _403
REMARK  150  A    between atoms: _406  and  _408
REMARK  151  A    between atoms: _408  and  _409
REMARK  152  A    between atoms: _408  and  _411
REMARK  153  A    between atoms: _411  and  _412
REMARK  154  A    between atoms: _422  and  _424
REMARK  155  A    between atoms: _424  and  _425
REMARK  156  A    between atoms: _424  and  _427
REMARK  157  A    between atoms: _427  and  _428
REMARK  158  A    between atoms: _433  and  _435
REMARK  159  A    between atoms: _435  and  _436
REMARK  160  A    between atoms: _435  and  _438
REMARK  161  A    between atoms: _438  and  _439
REMARK  162  A    between atoms: _439  and  _440
REMARK  163  A    between atoms: _440  and  _441
REMARK                            x       y       z     vdW  Elec       q    Type
REMARK                         _______ _______ _______ _____ _____    ______ ____
ROOT
ATOM      1  O   HOH     1      -1.179  -4.110  15.683  0.00  0.00    +0.000 OA
ENDROOT
TORSDOF 0
REMARK  Name = ../refined-set-2016/3sap/3sap_pocket.pdb
REMARK  163 active torsions:
REMARK  status: ('A' for Active; 'I' for Inactive)
REMARK    1  A    between atoms: _1  and  _3
REMARK    2  A    between atoms: _3  and  _4
REMARK    3  A    between atoms: _3  and  _6
REMARK    4  A    between atoms: _6  and  _7
REMARK    5  A    between atoms: _17  and  _19
REMARK    6  A    between atoms: _19  and  _20
REMARK    7  A    between atoms: _19  and  _22
REMARK    8  A    between atoms: _22  and  _23
REMARK    9  A    between atoms: _28  and  _29
REMARK   10  A    between atoms: _31  and  _33
REMARK   11  A    between atoms: _33  and  _34
REMARK   12  A    between atoms: _33  and  _36
REMARK   13  A    between atoms: _36  and  _37
REMARK   14  A    between atoms: _43  and  _45
REMARK   15  A    between atoms: _45  and  _46
REMARK   16  A    between atoms: _45  and  _48
REMARK   17  A    between atoms: _48  and  _49
REMARK   18  A    between atoms: _52  and  _53
REMARK   19  A    between atoms: _58  and  _60
REMARK   20  A    between atoms: _60  and  _61
REMARK   21  A    between atoms: _60  and  _63
REMARK   22  A    between atoms: _63  and  _64
REMARK   23  A    between atoms: _69  and  _71
REMARK   24  A    between atoms: _71  and  _72
REMARK   25  A    between atoms: _75  and  _77
REMARK   26  A    between atoms: _77  and  _78
REMARK   27  A    between atoms: _77  and  _80
REMARK   28  A    between atoms: _80  and  _81
REMARK   29  A    between atoms: _86  and  _88
REMARK   30  A    between atoms: _88  and  _89
REMARK   31  A    between atoms: _88  and  _91
REMARK   32  A    between atoms: _91  and  _92
REMARK   33  A    between atoms: _95  and  _97
REMARK   34  A    between atoms: _97  and  _98
REMARK   35  A    between atoms: _97  and  _100
REMARK   36  A    between atoms: _100  and  _101
REMARK   37  A    between atoms: _101  and  _102
REMARK   38  A    between atoms: _107  and  _109
REMARK   39  A    between atoms: _109  and  _110
REMARK   40  A    between atoms: _109  and  _112
REMARK   41  A    between atoms: _112  and  _113
REMARK   42  A    between atoms: _119  and  _121
REMARK   43  A    between atoms: _132  and  _135
REMARK   44  A    between atoms: _135  and  _136
REMARK   45  A    between atoms: _144  and  _145
REMARK   46  A    between atoms: _153  and  _155
REMARK   47  A    between atoms: _155  and  _156
REMARK   48  A    between atoms: _155  and  _158
REMARK   49  A    between atoms: _158  and  _159
REMARK   50  A    between atoms: _159  and  _160
REMARK   51  A    between atoms: _163  and  _165
REMARK   52  A    between atoms: _165  and  _166
REMARK   53  A    between atoms: _165  and  _168
REMARK   54  A    between atoms: _168  and  _169
REMARK   55  A    between atoms: _174  and  _176
REMARK   56  A    between atoms: _176  and  _177
REMARK   57  A    between atoms: _176  and  _179
REMARK   58  A    between atoms: _179  and  _180
REMARK   59  A    between atoms: _180  and  _181
REMARK   60  A    between atoms: _184  and  _186
REMARK   61  A    between atoms: _186  and  _187
REMARK   62  A    between atoms: _186  and  _189
REMARK   63  A    between atoms: _189  and  _190
REMARK   64  A    between atoms: _193  and  _195
REMARK   65  A    between atoms: _195  and  _196
REMARK   66  A    between atoms: _195  and  _198
REMARK   67  A    between atoms: _198  and  _199
REMARK   68  A    between atoms: _200  and  ZN_450
REMARK   69  A    between atoms: _204  and  _206
REMARK   70  A    between atoms: _206  and  _207
REMARK   71  A    between atoms: _206  and  _209
REMARK   72  A    between atoms: _209  and  _210
REMARK   73  A    between atoms: _213  and  _215
REMARK   74  A    between atoms: _215  and  _216
REMARK   75  A    between atoms: _215  and  _218
REMARK   76  A    between atoms: _221  and  _223
REMARK   77  A    between atoms: _223  and  _224
REMARK   78  A    between atoms: _223  and  _226
REMARK   79  A    between atoms: _226  and  _227
REMARK   80  A    between atoms: _232  and  _234
REMARK   81  A    between atoms: _234  and  _235
REMARK   82  A    between atoms: _234  and  _237
REMARK   83  A    between atoms: _237  and  _238
REMARK   84  A    between atoms: _244  and  _246
REMARK   85  A    between atoms: _246  and  _247
REMARK   86  A    between atoms: _249  and  _251
REMARK   87  A    between atoms: _251  and  _252
REMARK   88  A    between atoms: _251  and  _254
REMARK   89  A    between atoms: _254  and  _255
REMARK   90  A    between atoms: _255  and  _256
REMARK   91  A    between atoms: _256  and  _257
REMARK   92  A    between atoms: _257  and  _258
REMARK   93  A    between atoms: _262  and  _264
REMARK   94  A    between atoms: _264  and  _265
REMARK   95  A    between atoms: _264  and  _267
REMARK   96  A    between atoms: _270  and  _272
REMARK   97  A    between atoms: _272  and  _273
REMARK   98  A    between atoms: _272  and  _275
REMARK   99  A    between atoms: _275  and  _276
REMARK  100  A    between atoms: _276  and  _277
REMARK  101  A    between atoms: _282  and  _284
REMARK  102  A    between atoms: _284  and  _285
REMARK  103  A    between atoms: _284  and  _287
REMARK  104  A    between atoms: _287  and  _288
REMARK  105  A    between atoms: _291  and  _293
REMARK  106  A    between atoms: _293  and  _294
REMARK  107  A    between atoms: _297  and  _299
REMARK  108  A    between atoms: _299  and  _300
REMARK  109  A    between atoms: _299  and  _302
REMARK  110  A    between atoms: _305  and  _307
REMARK  111  A    between atoms: _307  and  _308
REMARK  112  A    between atoms: _307  and  _310
REMARK  113  A    between atoms: _310  and  _311
REMARK  114  A    between atoms: _314  and  _316
REMARK  115  A    between atoms: _316  and  _317
REMARK  116  A    between atoms: _319  and  _321
REMARK  117  A    between atoms: _321  and  _322
REMARK  118  A    between atoms: _324  and  _326
REMARK  119  A    between atoms: _326  and  _327
REMARK  120  A    between atoms: _326  and  _329
REMARK  121  A    between atoms: _329  and  _330
REMARK  122  A    between atoms: _332  and  _334
REMARK  123  A    between atoms: _334  and  _335
REMARK  124  A    between atoms: _334  and  _337
REMARK  125  A    between atoms: _337  and  _338
REMARK  126  A    between atoms: _341  and  _343
REMARK  127  A    between atoms: _343  and  _344
REMARK  128  A    between atoms: _343  and  _346
REMARK  129  A    between atoms: _346  and  _347
REMARK  130  A    between atoms: _350  and  _352
REMARK  131  A    between atoms: _352  and  _353
REMARK  132  A    between atoms: _352  and  _355
REMARK  133  A    between atoms: _355  and  _356
REMARK  134  A    between atoms: _360  and  _361
REMARK  135  A    between atoms: _367  and  _368
REMARK  136  A    between atoms: _373  and  _375
REMARK  137  A    between atoms: _375  and  _376
REMARK  138  A    between atoms: _375  and  _378
REMARK  139  A    between atoms: _378  and  _379
REMARK  140  A    between atoms: _382  and  _384
REMARK  141  A    between atoms: _384  and  _385
REMARK  142  A    between atoms: _384  and  _387
REMARK  143  A    between atoms: _387  and  _388
REMARK  144  A    between atoms: _391  and  _393
REMARK  145  A    between atoms: _393  and  _394
REMARK  146  A    between atoms: _393  and  _396
REMARK  147  A    between atoms: _398  and  _400
REMARK  148  A    between atoms: _400  and  _401
REMARK  149  A    between atoms: _400  and  _403
REMARK  150  A    between atoms: _406  and  _408
REMARK  151  A    between atoms: _408  and  _409
REMARK  152  A    between atoms: _408  and  _411
REMARK  153  A    between atoms: _411  and  _412
REMARK  154  A    between atoms: _422  and  _424
REMARK  155  A    between atoms: _424  and  _425
REMARK  156  A    between atoms: _424  and  _427
REMARK  157  A    between atoms: _427  and  _428
REMARK  158  A    between atoms: _433  and  _435
REMARK  159  A    between atoms: _435  and  _436
REMARK  160  A    between atoms: _435  and  _438
REMARK  161  A    between atoms: _438  and  _439
REMARK  162  A    between atoms: _439  and  _440
REMARK  163  A    between atoms: _440  and  _441
REMARK                            x       y       z     vdW  Elec       q    Type
REMARK                         _______ _______ _______ _____ _____    ______ ____
ROOT
ATOM      1  O   HOH     1       5.369   7.144  20.125  0.00  0.00    +0.000 OA
ENDROOT
TORSDOF 0
REMARK  Name = ../refined-set-2016/3sap/3sap_pocket.pdb
REMARK  163 active torsions:
REMARK  status: ('A' for Active; 'I' for Inactive)
REMARK    1  A    between atoms: _1  and  _3
REMARK    2  A    between atoms: _3  and  _4
REMARK    3  A    between atoms: _3  and  _6
REMARK    4  A    between atoms: _6  and  _7
REMARK    5  A    between atoms: _17  and  _19
REMARK    6  A    between atoms: _19  and  _20
REMARK    7  A    between atoms: _19  and  _22
REMARK    8  A    between atoms: _22  and  _23
REMARK    9  A    between atoms: _28  and  _29
REMARK   10  A    between atoms: _31  and  _33
REMARK   11  A    between atoms: _33  and  _34
REMARK   12  A    between atoms: _33  and  _36
REMARK   13  A    between atoms: _36  and  _37
REMARK   14  A    between atoms: _43  and  _45
REMARK   15  A    between atoms: _45  and  _46
REMARK   16  A    between atoms: _45  and  _48
REMARK   17  A    between atoms: _48  and  _49
REMARK   18  A    between atoms: _52  and  _53
REMARK   19  A    between atoms: _58  and  _60
REMARK   20  A    between atoms: _60  and  _61
REMARK   21  A    between atoms: _60  and  _63
REMARK   22  A    between atoms: _63  and  _64
REMARK   23  A    between atoms: _69  and  _71
REMARK   24  A    between atoms: _71  and  _72
REMARK   25  A    between atoms: _75  and  _77
REMARK   26  A    between atoms: _77  and  _78
REMARK   27  A    between atoms: _77  and  _80
REMARK   28  A    between atoms: _80  and  _81
REMARK   29  A    between atoms: _86  and  _88
REMARK   30  A    between atoms: _88  and  _89
REMARK   31  A    between atoms: _88  and  _91
REMARK   32  A    between atoms: _91  and  _92
REMARK   33  A    between atoms: _95  and  _97
REMARK   34  A    between atoms: _97  and  _98
REMARK   35  A    between atoms: _97  and  _100
REMARK   36  A    between atoms: _100  and  _101
REMARK   37  A    between atoms: _101  and  _102
REMARK   38  A    between atoms: _107  and  _109
REMARK   39  A    between atoms: _109  and  _110
REMARK   40  A    between atoms: _109  and  _112
REMARK   41  A    between atoms: _112  and  _113
REMARK   42  A    between atoms: _119  and  _121
REMARK   43  A    between atoms: _132  and  _135
REMARK   44  A    between atoms: _135  and  _136
REMARK   45  A    between atoms: _144  and  _145
REMARK   46  A    between atoms: _153  and  _155
REMARK   47  A    between atoms: _155  and  _156
REMARK   48  A    between atoms: _155  and  _158
REMARK   49  A    between atoms: _158  and  _159
REMARK   50  A    between atoms: _159  and  _160
REMARK   51  A    between atoms: _163  and  _165
REMARK   52  A    between atoms: _165  and  _166
REMARK   53  A    between atoms: _165  and  _168
REMARK   54  A    between atoms: _168  and  _169
REMARK   55  A    between atoms: _174  and  _176
REMARK   56  A    between atoms: _176  and  _177
REMARK   57  A    between atoms: _176  and  _179
REMARK   58  A    between atoms: _179  and  _180
REMARK   59  A    between atoms: _180  and  _181
REMARK   60  A    between atoms: _184  and  _186
REMARK   61  A    between atoms: _186  and  _187
REMARK   62  A    between atoms: _186  and  _189
REMARK   63  A    between atoms: _189  and  _190
REMARK   64  A    between atoms: _193  and  _195
REMARK   65  A    between atoms: _195  and  _196
REMARK   66  A    between atoms: _195  and  _198
REMARK   67  A    between atoms: _198  and  _199
REMARK   68  A    between atoms: _200  and  ZN_450
REMARK   69  A    between atoms: _204  and  _206
REMARK   70  A    between atoms: _206  and  _207
REMARK   71  A    between atoms: _206  and  _209
REMARK   72  A    between atoms: _209  and  _210
REMARK   73  A    between atoms: _213  and  _215
REMARK   74  A    between atoms: _215  and  _216
REMARK   75  A    between atoms: _215  and  _218
REMARK   76  A    between atoms: _221  and  _223
REMARK   77  A    between atoms: _223  and  _224
REMARK   78  A    between atoms: _223  and  _226
REMARK   79  A    between atoms: _226  and  _227
REMARK   80  A    between atoms: _232  and  _234
REMARK   81  A    between atoms: _234  and  _235
REMARK   82  A    between atoms: _234  and  _237
REMARK   83  A    between atoms: _237  and  _238
REMARK   84  A    between atoms: _244  and  _246
REMARK   85  A    between atoms: _246  and  _247
REMARK   86  A    between atoms: _249  and  _251
REMARK   87  A    between atoms: _251  and  _252
REMARK   88  A    between atoms: _251  and  _254
REMARK   89  A    between atoms: _254  and  _255
REMARK   90  A    between atoms: _255  and  _256
REMARK   91  A    between atoms: _256  and  _257
REMARK   92  A    between atoms: _257  and  _258
REMARK   93  A    between atoms: _262  and  _264
REMARK   94  A    between atoms: _264  and  _265
REMARK   95  A    between atoms: _264  and  _267
REMARK   96  A    between atoms: _270  and  _272
REMARK   97  A    between atoms: _272  and  _273
REMARK   98  A    between atoms: _272  and  _275
REMARK   99  A    between atoms: _275  and  _276
REMARK  100  A    between atoms: _276  and  _277
REMARK  101  A    between atoms: _282  and  _284
REMARK  102  A    between atoms: _284  and  _285
REMARK  103  A    between atoms: _284  and  _287
REMARK  104  A    between atoms: _287  and  _288
REMARK  105  A    between atoms: _291  and  _293
REMARK  106  A    between atoms: _293  and  _294
REMARK  107  A    between atoms: _297  and  _299
REMARK  108  A    between atoms: _299  and  _300
REMARK  109  A    between atoms: _299  and  _302
REMARK  110  A    between atoms: _305  and  _307
REMARK  111  A    between atoms: _307  and  _308
REMARK  112  A    between atoms: _307  and  _310
REMARK  113  A    between atoms: _310  and  _311
REMARK  114  A    between atoms: _314  and  _316
REMARK  115  A    between atoms: _316  and  _317
REMARK  116  A    between atoms: _319  and  _321
REMARK  117  A    between atoms: _321  and  _322
REMARK  118  A    between atoms: _324  and  _326
REMARK  119  A    between atoms: _326  and  _327
REMARK  120  A    between atoms: _326  and  _329
REMARK  121  A    between atoms: _329  and  _330
REMARK  122  A    between atoms: _332  and  _334
REMARK  123  A    between atoms: _334  and  _335
REMARK  124  A    between atoms: _334  and  _337
REMARK  125  A    between atoms: _337  and  _338
REMARK  126  A    between atoms: _341  and  _343
REMARK  127  A    between atoms: _343  and  _344
REMARK  128  A    between atoms: _343  and  _346
REMARK  129  A    between atoms: _346  and  _347
REMARK  130  A    between atoms: _350  and  _352
REMARK  131  A    between atoms: _352  and  _353
REMARK  132  A    between atoms: _352  and  _355
REMARK  133  A    between atoms: _355  and  _356
REMARK  134  A    between atoms: _360  and  _361
REMARK  135  A    between atoms: _367  and  _368
REMARK  136  A    between atoms: _373  and  _375
REMARK  137  A    between atoms: _375  and  _376
REMARK  138  A    between atoms: _375  and  _378
REMARK  139  A    between atoms: _378  and  _379
REMARK  140  A    between atoms: _382  and  _384
REMARK  141  A    between atoms: _384  and  _385
REMARK  142  A    between atoms: _384  and  _387
REMARK  143  A    between atoms: _387  and  _388
REMARK  144  A    between atoms: _391  and  _393
REMARK  145  A    between atoms: _393  and  _394
REMARK  146  A    between atoms: _393  and  _396
REMARK  147  A    between atoms: _398  and  _400
REMARK  148  A    between atoms: _400  and  _401
REMARK  149  A    between atoms: _400  and  _403
REMARK  150  A    between atoms: _406  and  _408
REMARK  151  A    between atoms: _408  and  _409
REMARK  152  A    between atoms: _408  and  _411
REMARK  153  A    between atoms: _411  and  _412
REMARK  154  A    between atoms: _422  and  _424
REMARK  155  A    between atoms: _424  and  _425
REMARK  156  A    between atoms: _424  and  _427
REMARK  157  A    between atoms: _427  and  _428
REMARK  158  A    between atoms: _433  and  _435
REMARK  159  A    between atoms: _435  and  _436
REMARK  160  A    between atoms: _435  and  _438
REMARK  161  A    between atoms: _438  and  _439
REMARK  162  A    between atoms: _439  and  _440
REMARK  163  A    between atoms: _440  and  _441
REMARK                            x       y       z     vdW  Elec       q    Type
REMARK                         _______ _______ _______ _____ _____    ______ ____
ROOT
ATOM      1  O   HOH     1       7.673   6.152  21.632  0.00  0.00    +0.000 OA
ENDROOT
TORSDOF 0
REMARK  Name = ../refined-set-2016/3sap/3sap_pocket.pdb
REMARK  163 active torsions:
REMARK  status: ('A' for Active; 'I' for Inactive)
REMARK    1  A    between atoms: _1  and  _3
REMARK    2  A    between atoms: _3  and  _4
REMARK    3  A    between atoms: _3  and  _6
REMARK    4  A    between atoms: _6  and  _7
REMARK    5  A    between atoms: _17  and  _19
REMARK    6  A    between atoms: _19  and  _20
REMARK    7  A    between atoms: _19  and  _22
REMARK    8  A    between atoms: _22  and  _23
REMARK    9  A    between atoms: _28  and  _29
REMARK   10  A    between atoms: _31  and  _33
REMARK   11  A    between atoms: _33  and  _34
REMARK   12  A    between atoms: _33  and  _36
REMARK   13  A    between atoms: _36  and  _37
REMARK   14  A    between atoms: _43  and  _45
REMARK   15  A    between atoms: _45  and  _46
REMARK   16  A    between atoms: _45  and  _48
REMARK   17  A    between atoms: _48  and  _49
REMARK   18  A    between atoms: _52  and  _53
REMARK   19  A    between atoms: _58  and  _60
REMARK   20  A    between atoms: _60  and  _61
REMARK   21  A    between atoms: _60  and  _63
REMARK   22  A    between atoms: _63  and  _64
REMARK   23  A    between atoms: _69  and  _71
REMARK   24  A    between atoms: _71  and  _72
REMARK   25  A    between atoms: _75  and  _77
REMARK   26  A    between atoms: _77  and  _78
REMARK   27  A    between atoms: _77  and  _80
REMARK   28  A    between atoms: _80  and  _81
REMARK   29  A    between atoms: _86  and  _88
REMARK   30  A    between atoms: _88  and  _89
REMARK   31  A    between atoms: _88  and  _91
REMARK   32  A    between atoms: _91  and  _92
REMARK   33  A    between atoms: _95  and  _97
REMARK   34  A    between atoms: _97  and  _98
REMARK   35  A    between atoms: _97  and  _100
REMARK   36  A    between atoms: _100  and  _101
REMARK   37  A    between atoms: _101  and  _102
REMARK   38  A    between atoms: _107  and  _109
REMARK   39  A    between atoms: _109  and  _110
REMARK   40  A    between atoms: _109  and  _112
REMARK   41  A    between atoms: _112  and  _113
REMARK   42  A    between atoms: _119  and  _121
REMARK   43  A    between atoms: _132  and  _135
REMARK   44  A    between atoms: _135  and  _136
REMARK   45  A    between atoms: _144  and  _145
REMARK   46  A    between atoms: _153  and  _155
REMARK   47  A    between atoms: _155  and  _156
REMARK   48  A    between atoms: _155  and  _158
REMARK   49  A    between atoms: _158  and  _159
REMARK   50  A    between atoms: _159  and  _160
REMARK   51  A    between atoms: _163  and  _165
REMARK   52  A    between atoms: _165  and  _166
REMARK   53  A    between atoms: _165  and  _168
REMARK   54  A    between atoms: _168  and  _169
REMARK   55  A    between atoms: _174  and  _176
REMARK   56  A    between atoms: _176  and  _177
REMARK   57  A    between atoms: _176  and  _179
REMARK   58  A    between atoms: _179  and  _180
REMARK   59  A    between atoms: _180  and  _181
REMARK   60  A    between atoms: _184  and  _186
REMARK   61  A    between atoms: _186  and  _187
REMARK   62  A    between atoms: _186  and  _189
REMARK   63  A    between atoms: _189  and  _190
REMARK   64  A    between atoms: _193  and  _195
REMARK   65  A    between atoms: _195  and  _196
REMARK   66  A    between atoms: _195  and  _198
REMARK   67  A    between atoms: _198  and  _199
REMARK   68  A    between atoms: _200  and  ZN_450
REMARK   69  A    between atoms: _204  and  _206
REMARK   70  A    between atoms: _206  and  _207
REMARK   71  A    between atoms: _206  and  _209
REMARK   72  A    between atoms: _209  and  _210
REMARK   73  A    between atoms: _213  and  _215
REMARK   74  A    between atoms: _215  and  _216
REMARK   75  A    between atoms: _215  and  _218
REMARK   76  A    between atoms: _221  and  _223
REMARK   77  A    between atoms: _223  and  _224
REMARK   78  A    between atoms: _223  and  _226
REMARK   79  A    between atoms: _226  and  _227
REMARK   80  A    between atoms: _232  and  _234
REMARK   81  A    between atoms: _234  and  _235
REMARK   82  A    between atoms: _234  and  _237
REMARK   83  A    between atoms: _237  and  _238
REMARK   84  A    between atoms: _244  and  _246
REMARK   85  A    between atoms: _246  and  _247
REMARK   86  A    between atoms: _249  and  _251
REMARK   87  A    between atoms: _251  and  _252
REMARK   88  A    between atoms: _251  and  _254
REMARK   89  A    between atoms: _254  and  _255
REMARK   90  A    between atoms: _255  and  _256
REMARK   91  A    between atoms: _256  and  _257
REMARK   92  A    between atoms: _257  and  _258
REMARK   93  A    between atoms: _262  and  _264
REMARK   94  A    between atoms: _264  and  _265
REMARK   95  A    between atoms: _264  and  _267
REMARK   96  A    between atoms: _270  and  _272
REMARK   97  A    between atoms: _272  and  _273
REMARK   98  A    between atoms: _272  and  _275
REMARK   99  A    between atoms: _275  and  _276
REMARK  100  A    between atoms: _276  and  _277
REMARK  101  A    between atoms: _282  and  _284
REMARK  102  A    between atoms: _284  and  _285
REMARK  103  A    between atoms: _284  and  _287
REMARK  104  A    between atoms: _287  and  _288
REMARK  105  A    between atoms: _291  and  _293
REMARK  106  A    between atoms: _293  and  _294
REMARK  107  A    between atoms: _297  and  _299
REMARK  108  A    between atoms: _299  and  _300
REMARK  109  A    between atoms: _299  and  _302
REMARK  110  A    between atoms: _305  and  _307
REMARK  111  A    between atoms: _307  and  _308
REMARK  112  A    between atoms: _307  and  _310
REMARK  113  A    between atoms: _310  and  _311
REMARK  114  A    between atoms: _314  and  _316
REMARK  115  A    between atoms: _316  and  _317
REMARK  116  A    between atoms: _319  and  _321
REMARK  117  A    between atoms: _321  and  _322
REMARK  118  A    between atoms: _324  and  _326
REMARK  119  A    between atoms: _326  and  _327
REMARK  120  A    between atoms: _326  and  _329
REMARK  121  A    between atoms: _329  and  _330
REMARK  122  A    between atoms: _332  and  _334
REMARK  123  A    between atoms: _334  and  _335
REMARK  124  A    between atoms: _334  and  _337
REMARK  125  A    between atoms: _337  and  _338
REMARK  126  A    between atoms: _341  and  _343
REMARK  127  A    between atoms: _343  and  _344
REMARK  128  A    between atoms: _343  and  _346
REMARK  129  A    between atoms: _346  and  _347
REMARK  130  A    between atoms: _350  and  _352
REMARK  131  A    between atoms: _352  and  _353
REMARK  132  A    between atoms: _352  and  _355
REMARK  133  A    between atoms: _355  and  _356
REMARK  134  A    between atoms: _360  and  _361
REMARK  135  A    between atoms: _367  and  _368
REMARK  136  A    between atoms: _373  and  _375
REMARK  137  A    between atoms: _375  and  _376
REMARK  138  A    between atoms: _375  and  _378
REMARK  139  A    between atoms: _378  and  _379
REMARK  140  A    between atoms: _382  and  _384
REMARK  141  A    between atoms: _384  and  _385
REMARK  142  A    between atoms: _384  and  _387
REMARK  143  A    between atoms: _387  and  _388
REMARK  144  A    between atoms: _391  and  _393
REMARK  145  A    between atoms: _393  and  _394
REMARK  146  A    between atoms: _393  and  _396
REMARK  147  A    between atoms: _398  and  _400
REMARK  148  A    between atoms: _400  and  _401
REMARK  149  A    between atoms: _400  and  _403
REMARK  150  A    between atoms: _406  and  _408
REMARK  151  A    between atoms: _408  and  _409
REMARK  152  A    between atoms: _408  and  _411
REMARK  153  A    between atoms: _411  and  _412
REMARK  154  A    between atoms: _422  and  _424
REMARK  155  A    between atoms: _424  and  _425
REMARK  156  A    between atoms: _424  and  _427
REMARK  157  A    between atoms: _427  and  _428
REMARK  158  A    between atoms: _433  and  _435
REMARK  159  A    between atoms: _435  and  _436
REMARK  160  A    between atoms: _435  and  _438
REMARK  161  A    between atoms: _438  and  _439
REMARK  162  A    between atoms: _439  and  _440
REMARK  163  A    between atoms: _440  and  _441
REMARK                            x       y       z     vdW  Elec       q    Type
REMARK                         _______ _______ _______ _____ _____    ______ ____
ROOT
ATOM      1  O   HOH     1       1.404   8.812  24.431  0.00  0.00    +0.000 OA
ENDROOT
TORSDOF 0
REMARK  Name = ../refined-set-2016/3sap/3sap_pocket.pdb
REMARK  163 active torsions:
REMARK  status: ('A' for Active; 'I' for Inactive)
REMARK    1  A    between atoms: _1  and  _3
REMARK    2  A    between atoms: _3  and  _4
REMARK    3  A    between atoms: _3  and  _6
REMARK    4  A    between atoms: _6  and  _7
REMARK    5  A    between atoms: _17  and  _19
REMARK    6  A    between atoms: _19  and  _20
REMARK    7  A    between atoms: _19  and  _22
REMARK    8  A    between atoms: _22  and  _23
REMARK    9  A    between atoms: _28  and  _29
REMARK   10  A    between atoms: _31  and  _33
REMARK   11  A    between atoms: _33  and  _34
REMARK   12  A    between atoms: _33  and  _36
REMARK   13  A    between atoms: _36  and  _37
REMARK   14  A    between atoms: _43  and  _45
REMARK   15  A    between atoms: _45  and  _46
REMARK   16  A    between atoms: _45  and  _48
REMARK   17  A    between atoms: _48  and  _49
REMARK   18  A    between atoms: _52  and  _53
REMARK   19  A    between atoms: _58  and  _60
REMARK   20  A    between atoms: _60  and  _61
REMARK   21  A    between atoms: _60  and  _63
REMARK   22  A    between atoms: _63  and  _64
REMARK   23  A    between atoms: _69  and  _71
REMARK   24  A    between atoms: _71  and  _72
REMARK   25  A    between atoms: _75  and  _77
REMARK   26  A    between atoms: _77  and  _78
REMARK   27  A    between atoms: _77  and  _80
REMARK   28  A    between atoms: _80  and  _81
REMARK   29  A    between atoms: _86  and  _88
REMARK   30  A    between atoms: _88  and  _89
REMARK   31  A    between atoms: _88  and  _91
REMARK   32  A    between atoms: _91  and  _92
REMARK   33  A    between atoms: _95  and  _97
REMARK   34  A    between atoms: _97  and  _98
REMARK   35  A    between atoms: _97  and  _100
REMARK   36  A    between atoms: _100  and  _101
REMARK   37  A    between atoms: _101  and  _102
REMARK   38  A    between atoms: _107  and  _109
REMARK   39  A    between atoms: _109  and  _110
REMARK   40  A    between atoms: _109  and  _112
REMARK   41  A    between atoms: _112  and  _113
REMARK   42  A    between atoms: _119  and  _121
REMARK   43  A    between atoms: _132  and  _135
REMARK   44  A    between atoms: _135  and  _136
REMARK   45  A    between atoms: _144  and  _145
REMARK   46  A    between atoms: _153  and  _155
REMARK   47  A    between atoms: _155  and  _156
REMARK   48  A    between atoms: _155  and  _158
REMARK   49  A    between atoms: _158  and  _159
REMARK   50  A    between atoms: _159  and  _160
REMARK   51  A    between atoms: _163  and  _165
REMARK   52  A    between atoms: _165  and  _166
REMARK   53  A    between atoms: _165  and  _168
REMARK   54  A    between atoms: _168  and  _169
REMARK   55  A    between atoms: _174  and  _176
REMARK   56  A    between atoms: _176  and  _177
REMARK   57  A    between atoms: _176  and  _179
REMARK   58  A    between atoms: _179  and  _180
REMARK   59  A    between atoms: _180  and  _181
REMARK   60  A    between atoms: _184  and  _186
REMARK   61  A    between atoms: _186  and  _187
REMARK   62  A    between atoms: _186  and  _189
REMARK   63  A    between atoms: _189  and  _190
REMARK   64  A    between atoms: _193  and  _195
REMARK   65  A    between atoms: _195  and  _196
REMARK   66  A    between atoms: _195  and  _198
REMARK   67  A    between atoms: _198  and  _199
REMARK   68  A    between atoms: _200  and  ZN_450
REMARK   69  A    between atoms: _204  and  _206
REMARK   70  A    between atoms: _206  and  _207
REMARK   71  A    between atoms: _206  and  _209
REMARK   72  A    between atoms: _209  and  _210
REMARK   73  A    between atoms: _213  and  _215
REMARK   74  A    between atoms: _215  and  _216
REMARK   75  A    between atoms: _215  and  _218
REMARK   76  A    between atoms: _221  and  _223
REMARK   77  A    between atoms: _223  and  _224
REMARK   78  A    between atoms: _223  and  _226
REMARK   79  A    between atoms: _226  and  _227
REMARK   80  A    between atoms: _232  and  _234
REMARK   81  A    between atoms: _234  and  _235
REMARK   82  A    between atoms: _234  and  _237
REMARK   83  A    between atoms: _237  and  _238
REMARK   84  A    between atoms: _244  and  _246
REMARK   85  A    between atoms: _246  and  _247
REMARK   86  A    between atoms: _249  and  _251
REMARK   87  A    between atoms: _251  and  _252
REMARK   88  A    between atoms: _251  and  _254
REMARK   89  A    between atoms: _254  and  _255
REMARK   90  A    between atoms: _255  and  _256
REMARK   91  A    between atoms: _256  and  _257
REMARK   92  A    between atoms: _257  and  _258
REMARK   93  A    between atoms: _262  and  _264
REMARK   94  A    between atoms: _264  and  _265
REMARK   95  A    between atoms: _264  and  _267
REMARK   96  A    between atoms: _270  and  _272
REMARK   97  A    between atoms: _272  and  _273
REMARK   98  A    between atoms: _272  and  _275
REMARK   99  A    between atoms: _275  and  _276
REMARK  100  A    between atoms: _276  and  _277
REMARK  101  A    between atoms: _282  and  _284
REMARK  102  A    between atoms: _284  and  _285
REMARK  103  A    between atoms: _284  and  _287
REMARK  104  A    between atoms: _287  and  _288
REMARK  105  A    between atoms: _291  and  _293
REMARK  106  A    between atoms: _293  and  _294
REMARK  107  A    between atoms: _297  and  _299
REMARK  108  A    between atoms: _299  and  _300
REMARK  109  A    between atoms: _299  and  _302
REMARK  110  A    between atoms: _305  and  _307
REMARK  111  A    between atoms: _307  and  _308
REMARK  112  A    between atoms: _307  and  _310
REMARK  113  A    between atoms: _310  and  _311
REMARK  114  A    between atoms: _314  and  _316
REMARK  115  A    between atoms: _316  and  _317
REMARK  116  A    between atoms: _319  and  _321
REMARK  117  A    between atoms: _321  and  _322
REMARK  118  A    between atoms: _324  and  _326
REMARK  119  A    between atoms: _326  and  _327
REMARK  120  A    between atoms: _326  and  _329
REMARK  121  A    between atoms: _329  and  _330
REMARK  122  A    between atoms: _332  and  _334
REMARK  123  A    between atoms: _334  and  _335
REMARK  124  A    between atoms: _334  and  _337
REMARK  125  A    between atoms: _337  and  _338
REMARK  126  A    between atoms: _341  and  _343
REMARK  127  A    between atoms: _343  and  _344
REMARK  128  A    between atoms: _343  and  _346
REMARK  129  A    between atoms: _346  and  _347
REMARK  130  A    between atoms: _350  and  _352
REMARK  131  A    between atoms: _352  and  _353
REMARK  132  A    between atoms: _352  and  _355
REMARK  133  A    between atoms: _355  and  _356
REMARK  134  A    between atoms: _360  and  _361
REMARK  135  A    between atoms: _367  and  _368
REMARK  136  A    between atoms: _373  and  _375
REMARK  137  A    between atoms: _375  and  _376
REMARK  138  A    between atoms: _375  and  _378
REMARK  139  A    between atoms: _378  and  _379
REMARK  140  A    between atoms: _382  and  _384
REMARK  141  A    between atoms: _384  and  _385
REMARK  142  A    between atoms: _384  and  _387
REMARK  143  A    between atoms: _387  and  _388
REMARK  144  A    between atoms: _391  and  _393
REMARK  145  A    between atoms: _393  and  _394
REMARK  146  A    between atoms: _393  and  _396
REMARK  147  A    between atoms: _398  and  _400
REMARK  148  A    between atoms: _400  and  _401
REMARK  149  A    between atoms: _400  and  _403
REMARK  150  A    between atoms: _406  and  _408
REMARK  151  A    between atoms: _408  and  _409
REMARK  152  A    between atoms: _408  and  _411
REMARK  153  A    between atoms: _411  and  _412
REMARK  154  A    between atoms: _422  and  _424
REMARK  155  A    between atoms: _424  and  _425
REMARK  156  A    between atoms: _424  and  _427
REMARK  157  A    between atoms: _427  and  _428
REMARK  158  A    between atoms: _433  and  _435
REMARK  159  A    between atoms: _435  and  _436
REMARK  160  A    between atoms: _435  and  _438
REMARK  161  A    between atoms: _438  and  _439
REMARK  162  A    between atoms: _439  and  _440
REMARK  163  A    between atoms: _440  and  _441
REMARK                            x       y       z     vdW  Elec       q    Type
REMARK                         _______ _______ _______ _____ _____    ______ ____
ROOT
ATOM      1  O   HOH     1      -5.058   0.876   9.979  0.00  0.00    +0.000 OA
ENDROOT
TORSDOF 0
REMARK  Name = ../refined-set-2016/3sap/3sap_pocket.pdb
REMARK  163 active torsions:
REMARK  status: ('A' for Active; 'I' for Inactive)
REMARK    1  A    between atoms: _1  and  _3
REMARK    2  A    between atoms: _3  and  _4
REMARK    3  A    between atoms: _3  and  _6
REMARK    4  A    between atoms: _6  and  _7
REMARK    5  A    between atoms: _17  and  _19
REMARK    6  A    between atoms: _19  and  _20
REMARK    7  A    between atoms: _19  and  _22
REMARK    8  A    between atoms: _22  and  _23
REMARK    9  A    between atoms: _28  and  _29
REMARK   10  A    between atoms: _31  and  _33
REMARK   11  A    between atoms: _33  and  _34
REMARK   12  A    between atoms: _33  and  _36
REMARK   13  A    between atoms: _36  and  _37
REMARK   14  A    between atoms: _43  and  _45
REMARK   15  A    between atoms: _45  and  _46
REMARK   16  A    between atoms: _45  and  _48
REMARK   17  A    between atoms: _48  and  _49
REMARK   18  A    between atoms: _52  and  _53
REMARK   19  A    between atoms: _58  and  _60
REMARK   20  A    between atoms: _60  and  _61
REMARK   21  A    between atoms: _60  and  _63
REMARK   22  A    between atoms: _63  and  _64
REMARK   23  A    between atoms: _69  and  _71
REMARK   24  A    between atoms: _71  and  _72
REMARK   25  A    between atoms: _75  and  _77
REMARK   26  A    between atoms: _77  and  _78
REMARK   27  A    between atoms: _77  and  _80
REMARK   28  A    between atoms: _80  and  _81
REMARK   29  A    between atoms: _86  and  _88
REMARK   30  A    between atoms: _88  and  _89
REMARK   31  A    between atoms: _88  and  _91
REMARK   32  A    between atoms: _91  and  _92
REMARK   33  A    between atoms: _95  and  _97
REMARK   34  A    between atoms: _97  and  _98
REMARK   35  A    between atoms: _97  and  _100
REMARK   36  A    between atoms: _100  and  _101
REMARK   37  A    between atoms: _101  and  _102
REMARK   38  A    between atoms: _107  and  _109
REMARK   39  A    between atoms: _109  and  _110
REMARK   40  A    between atoms: _109  and  _112
REMARK   41  A    between atoms: _112  and  _113
REMARK   42  A    between atoms: _119  and  _121
REMARK   43  A    between atoms: _132  and  _135
REMARK   44  A    between atoms: _135  and  _136
REMARK   45  A    between atoms: _144  and  _145
REMARK   46  A    between atoms: _153  and  _155
REMARK   47  A    between atoms: _155  and  _156
REMARK   48  A    between atoms: _155  and  _158
REMARK   49  A    between atoms: _158  and  _159
REMARK   50  A    between atoms: _159  and  _160
REMARK   51  A    between atoms: _163  and  _165
REMARK   52  A    between atoms: _165  and  _166
REMARK   53  A    between atoms: _165  and  _168
REMARK   54  A    between atoms: _168  and  _169
REMARK   55  A    between atoms: _174  and  _176
REMARK   56  A    between atoms: _176  and  _177
REMARK   57  A    between atoms: _176  and  _179
REMARK   58  A    between atoms: _179  and  _180
REMARK   59  A    between atoms: _180  and  _181
REMARK   60  A    between atoms: _184  and  _186
REMARK   61  A    between atoms: _186  and  _187
REMARK   62  A    between atoms: _186  and  _189
REMARK   63  A    between atoms: _189  and  _190
REMARK   64  A    between atoms: _193  and  _195
REMARK   65  A    between atoms: _195  and  _196
REMARK   66  A    between atoms: _195  and  _198
REMARK   67  A    between atoms: _198  and  _199
REMARK   68  A    between atoms: _200  and  ZN_450
REMARK   69  A    between atoms: _204  and  _206
REMARK   70  A    between atoms: _206  and  _207
REMARK   71  A    between atoms: _206  and  _209
REMARK   72  A    between atoms: _209  and  _210
REMARK   73  A    between atoms: _213  and  _215
REMARK   74  A    between atoms: _215  and  _216
REMARK   75  A    between atoms: _215  and  _218
REMARK   76  A    between atoms: _221  and  _223
REMARK   77  A    between atoms: _223  and  _224
REMARK   78  A    between atoms: _223  and  _226
REMARK   79  A    between atoms: _226  and  _227
REMARK   80  A    between atoms: _232  and  _234
REMARK   81  A    between atoms: _234  and  _235
REMARK   82  A    between atoms: _234  and  _237
REMARK   83  A    between atoms: _237  and  _238
REMARK   84  A    between atoms: _244  and  _246
REMARK   85  A    between atoms: _246  and  _247
REMARK   86  A    between atoms: _249  and  _251
REMARK   87  A    between atoms: _251  and  _252
REMARK   88  A    between atoms: _251  and  _254
REMARK   89  A    between atoms: _254  and  _255
REMARK   90  A    between atoms: _255  and  _256
REMARK   91  A    between atoms: _256  and  _257
REMARK   92  A    between atoms: _257  and  _258
REMARK   93  A    between atoms: _262  and  _264
REMARK   94  A    between atoms: _264  and  _265
REMARK   95  A    between atoms: _264  and  _267
REMARK   96  A    between atoms: _270  and  _272
REMARK   97  A    between atoms: _272  and  _273
REMARK   98  A    between atoms: _272  and  _275
REMARK   99  A    between atoms: _275  and  _276
REMARK  100  A    between atoms: _276  and  _277
REMARK  101  A    between atoms: _282  and  _284
REMARK  102  A    between atoms: _284  and  _285
REMARK  103  A    between atoms: _284  and  _287
REMARK  104  A    between atoms: _287  and  _288
REMARK  105  A    between atoms: _291  and  _293
REMARK  106  A    between atoms: _293  and  _294
REMARK  107  A    between atoms: _297  and  _299
REMARK  108  A    between atoms: _299  and  _300
REMARK  109  A    between atoms: _299  and  _302
REMARK  110  A    between atoms: _305  and  _307
REMARK  111  A    between atoms: _307  and  _308
REMARK  112  A    between atoms: _307  and  _310
REMARK  113  A    between atoms: _310  and  _311
REMARK  114  A    between atoms: _314  and  _316
REMARK  115  A    between atoms: _316  and  _317
REMARK  116  A    between atoms: _319  and  _321
REMARK  117  A    between atoms: _321  and  _322
REMARK  118  A    between atoms: _324  and  _326
REMARK  119  A    between atoms: _326  and  _327
REMARK  120  A    between atoms: _326  and  _329
REMARK  121  A    between atoms: _329  and  _330
REMARK  122  A    between atoms: _332  and  _334
REMARK  123  A    between atoms: _334  and  _335
REMARK  124  A    between atoms: _334  and  _337
REMARK  125  A    between atoms: _337  and  _338
REMARK  126  A    between atoms: _341  and  _343
REMARK  127  A    between atoms: _343  and  _344
REMARK  128  A    between atoms: _343  and  _346
REMARK  129  A    between atoms: _346  and  _347
REMARK  130  A    between atoms: _350  and  _352
REMARK  131  A    between atoms: _352  and  _353
REMARK  132  A    between atoms: _352  and  _355
REMARK  133  A    between atoms: _355  and  _356
REMARK  134  A    between atoms: _360  and  _361
REMARK  135  A    between atoms: _367  and  _368
REMARK  136  A    between atoms: _373  and  _375
REMARK  137  A    between atoms: _375  and  _376
REMARK  138  A    between atoms: _375  and  _378
REMARK  139  A    between atoms: _378  and  _379
REMARK  140  A    between atoms: _382  and  _384
REMARK  141  A    between atoms: _384  and  _385
REMARK  142  A    between atoms: _384  and  _387
REMARK  143  A    between atoms: _387  and  _388
REMARK  144  A    between atoms: _391  and  _393
REMARK  145  A    between atoms: _393  and  _394
REMARK  146  A    between atoms: _393  and  _396
REMARK  147  A    between atoms: _398  and  _400
REMARK  148  A    between atoms: _400  and  _401
REMARK  149  A    between atoms: _400  and  _403
REMARK  150  A    between atoms: _406  and  _408
REMARK  151  A    between atoms: _408  and  _409
REMARK  152  A    between atoms: _408  and  _411
REMARK  153  A    between atoms: _411  and  _412
REMARK  154  A    between atoms: _422  and  _424
REMARK  155  A    between atoms: _424  and  _425
REMARK  156  A    between atoms: _424  and  _427
REMARK  157  A    between atoms: _427  and  _428
REMARK  158  A    between atoms: _433  and  _435
REMARK  159  A    between atoms: _435  and  _436
REMARK  160  A    between atoms: _435  and  _438
REMARK  161  A    between atoms: _438  and  _439
REMARK  162  A    between atoms: _439  and  _440
REMARK  163  A    between atoms: _440  and  _441
REMARK                            x       y       z     vdW  Elec       q    Type
REMARK                         _______ _______ _______ _____ _____    ______ ____
ROOT
ATOM      1  O   HOH     1      -7.034   5.960   6.641  0.00  0.00    +0.000 OA
ENDROOT
TORSDOF 0
REMARK  Name = ../refined-set-2016/3sap/3sap_pocket.pdb
REMARK  163 active torsions:
REMARK  status: ('A' for Active; 'I' for Inactive)
REMARK    1  A    between atoms: _1  and  _3
REMARK    2  A    between atoms: _3  and  _4
REMARK    3  A    between atoms: _3  and  _6
REMARK    4  A    between atoms: _6  and  _7
REMARK    5  A    between atoms: _17  and  _19
REMARK    6  A    between atoms: _19  and  _20
REMARK    7  A    between atoms: _19  and  _22
REMARK    8  A    between atoms: _22  and  _23
REMARK    9  A    between atoms: _28  and  _29
REMARK   10  A    between atoms: _31  and  _33
REMARK   11  A    between atoms: _33  and  _34
REMARK   12  A    between atoms: _33  and  _36
REMARK   13  A    between atoms: _36  and  _37
REMARK   14  A    between atoms: _43  and  _45
REMARK   15  A    between atoms: _45  and  _46
REMARK   16  A    between atoms: _45  and  _48
REMARK   17  A    between atoms: _48  and  _49
REMARK   18  A    between atoms: _52  and  _53
REMARK   19  A    between atoms: _58  and  _60
REMARK   20  A    between atoms: _60  and  _61
REMARK   21  A    between atoms: _60  and  _63
REMARK   22  A    between atoms: _63  and  _64
REMARK   23  A    between atoms: _69  and  _71
REMARK   24  A    between atoms: _71  and  _72
REMARK   25  A    between atoms: _75  and  _77
REMARK   26  A    between atoms: _77  and  _78
REMARK   27  A    between atoms: _77  and  _80
REMARK   28  A    between atoms: _80  and  _81
REMARK   29  A    between atoms: _86  and  _88
REMARK   30  A    between atoms: _88  and  _89
REMARK   31  A    between atoms: _88  and  _91
REMARK   32  A    between atoms: _91  and  _92
REMARK   33  A    between atoms: _95  and  _97
REMARK   34  A    between atoms: _97  and  _98
REMARK   35  A    between atoms: _97  and  _100
REMARK   36  A    between atoms: _100  and  _101
REMARK   37  A    between atoms: _101  and  _102
REMARK   38  A    between atoms: _107  and  _109
REMARK   39  A    between atoms: _109  and  _110
REMARK   40  A    between atoms: _109  and  _112
REMARK   41  A    between atoms: _112  and  _113
REMARK   42  A    between atoms: _119  and  _121
REMARK   43  A    between atoms: _132  and  _135
REMARK   44  A    between atoms: _135  and  _136
REMARK   45  A    between atoms: _144  and  _145
REMARK   46  A    between atoms: _153  and  _155
REMARK   47  A    between atoms: _155  and  _156
REMARK   48  A    between atoms: _155  and  _158
REMARK   49  A    between atoms: _158  and  _159
REMARK   50  A    between atoms: _159  and  _160
REMARK   51  A    between atoms: _163  and  _165
REMARK   52  A    between atoms: _165  and  _166
REMARK   53  A    between atoms: _165  and  _168
REMARK   54  A    between atoms: _168  and  _169
REMARK   55  A    between atoms: _174  and  _176
REMARK   56  A    between atoms: _176  and  _177
REMARK   57  A    between atoms: _176  and  _179
REMARK   58  A    between atoms: _179  and  _180
REMARK   59  A    between atoms: _180  and  _181
REMARK   60  A    between atoms: _184  and  _186
REMARK   61  A    between atoms: _186  and  _187
REMARK   62  A    between atoms: _186  and  _189
REMARK   63  A    between atoms: _189  and  _190
REMARK   64  A    between atoms: _193  and  _195
REMARK   65  A    between atoms: _195  and  _196
REMARK   66  A    between atoms: _195  and  _198
REMARK   67  A    between atoms: _198  and  _199
REMARK   68  A    between atoms: _200  and  ZN_450
REMARK   69  A    between atoms: _204  and  _206
REMARK   70  A    between atoms: _206  and  _207
REMARK   71  A    between atoms: _206  and  _209
REMARK   72  A    between atoms: _209  and  _210
REMARK   73  A    between atoms: _213  and  _215
REMARK   74  A    between atoms: _215  and  _216
REMARK   75  A    between atoms: _215  and  _218
REMARK   76  A    between atoms: _221  and  _223
REMARK   77  A    between atoms: _223  and  _224
REMARK   78  A    between atoms: _223  and  _226
REMARK   79  A    between atoms: _226  and  _227
REMARK   80  A    between atoms: _232  and  _234
REMARK   81  A    between atoms: _234  and  _235
REMARK   82  A    between atoms: _234  and  _237
REMARK   83  A    between atoms: _237  and  _238
REMARK   84  A    between atoms: _244  and  _246
REMARK   85  A    between atoms: _246  and  _247
REMARK   86  A    between atoms: _249  and  _251
REMARK   87  A    between atoms: _251  and  _252
REMARK   88  A    between atoms: _251  and  _254
REMARK   89  A    between atoms: _254  and  _255
REMARK   90  A    between atoms: _255  and  _256
REMARK   91  A    between atoms: _256  and  _257
REMARK   92  A    between atoms: _257  and  _258
REMARK   93  A    between atoms: _262  and  _264
REMARK   94  A    between atoms: _264  and  _265
REMARK   95  A    between atoms: _264  and  _267
REMARK   96  A    between atoms: _270  and  _272
REMARK   97  A    between atoms: _272  and  _273
REMARK   98  A    between atoms: _272  and  _275
REMARK   99  A    between atoms: _275  and  _276
REMARK  100  A    between atoms: _276  and  _277
REMARK  101  A    between atoms: _282  and  _284
REMARK  102  A    between atoms: _284  and  _285
REMARK  103  A    between atoms: _284  and  _287
REMARK  104  A    between atoms: _287  and  _288
REMARK  105  A    between atoms: _291  and  _293
REMARK  106  A    between atoms: _293  and  _294
REMARK  107  A    between atoms: _297  and  _299
REMARK  108  A    between atoms: _299  and  _300
REMARK  109  A    between atoms: _299  and  _302
REMARK  110  A    between atoms: _305  and  _307
REMARK  111  A    between atoms: _307  and  _308
REMARK  112  A    between atoms: _307  and  _310
REMARK  113  A    between atoms: _310  and  _311
REMARK  114  A    between atoms: _314  and  _316
REMARK  115  A    between atoms: _316  and  _317
REMARK  116  A    between atoms: _319  and  _321
REMARK  117  A    between atoms: _321  and  _322
REMARK  118  A    between atoms: _324  and  _326
REMARK  119  A    between atoms: _326  and  _327
REMARK  120  A    between atoms: _326  and  _329
REMARK  121  A    between atoms: _329  and  _330
REMARK  122  A    between atoms: _332  and  _334
REMARK  123  A    between atoms: _334  and  _335
REMARK  124  A    between atoms: _334  and  _337
REMARK  125  A    between atoms: _337  and  _338
REMARK  126  A    between atoms: _341  and  _343
REMARK  127  A    between atoms: _343  and  _344
REMARK  128  A    between atoms: _343  and  _346
REMARK  129  A    between atoms: _346  and  _347
REMARK  130  A    between atoms: _350  and  _352
REMARK  131  A    between atoms: _352  and  _353
REMARK  132  A    between atoms: _352  and  _355
REMARK  133  A    between atoms: _355  and  _356
REMARK  134  A    between atoms: _360  and  _361
REMARK  135  A    between atoms: _367  and  _368
REMARK  136  A    between atoms: _373  and  _375
REMARK  137  A    between atoms: _375  and  _376
REMARK  138  A    between atoms: _375  and  _378
REMARK  139  A    between atoms: _378  and  _379
REMARK  140  A    between atoms: _382  and  _384
REMARK  141  A    between atoms: _384  and  _385
REMARK  142  A    between atoms: _384  and  _387
REMARK  143  A    between atoms: _387  and  _388
REMARK  144  A    between atoms: _391  and  _393
REMARK  145  A    between atoms: _393  and  _394
REMARK  146  A    between atoms: _393  and  _396
REMARK  147  A    between atoms: _398  and  _400
REMARK  148  A    between atoms: _400  and  _401
REMARK  149  A    between atoms: _400  and  _403
REMARK  150  A    between atoms: _406  and  _408
REMARK  151  A    between atoms: _408  and  _409
REMARK  152  A    between atoms: _408  and  _411
REMARK  153  A    between atoms: _411  and  _412
REMARK  154  A    between atoms: _422  and  _424
REMARK  155  A    between atoms: _424  and  _425
REMARK  156  A    between atoms: _424  and  _427
REMARK  157  A    between atoms: _427  and  _428
REMARK  158  A    between atoms: _433  and  _435
REMARK  159  A    between atoms: _435  and  _436
REMARK  160  A    between atoms: _435  and  _438
REMARK  161  A    between atoms: _438  and  _439
REMARK  162  A    between atoms: _439  and  _440
REMARK  163  A    between atoms: _440  and  _441
REMARK                            x       y       z     vdW  Elec       q    Type
REMARK                         _______ _______ _______ _____ _____    ______ ____
ROOT
ATOM      1  O   HOH     1      -4.309   3.988  10.135  0.00  0.00    +0.000 OA
ENDROOT
TORSDOF 0
REMARK  Name = ../refined-set-2016/3sap/3sap_pocket.pdb
REMARK  163 active torsions:
REMARK  status: ('A' for Active; 'I' for Inactive)
REMARK    1  A    between atoms: _1  and  _3
REMARK    2  A    between atoms: _3  and  _4
REMARK    3  A    between atoms: _3  and  _6
REMARK    4  A    between atoms: _6  and  _7
REMARK    5  A    between atoms: _17  and  _19
REMARK    6  A    between atoms: _19  and  _20
REMARK    7  A    between atoms: _19  and  _22
REMARK    8  A    between atoms: _22  and  _23
REMARK    9  A    between atoms: _28  and  _29
REMARK   10  A    between atoms: _31  and  _33
REMARK   11  A    between atoms: _33  and  _34
REMARK   12  A    between atoms: _33  and  _36
REMARK   13  A    between atoms: _36  and  _37
REMARK   14  A    between atoms: _43  and  _45
REMARK   15  A    between atoms: _45  and  _46
REMARK   16  A    between atoms: _45  and  _48
REMARK   17  A    between atoms: _48  and  _49
REMARK   18  A    between atoms: _52  and  _53
REMARK   19  A    between atoms: _58  and  _60
REMARK   20  A    between atoms: _60  and  _61
REMARK   21  A    between atoms: _60  and  _63
REMARK   22  A    between atoms: _63  and  _64
REMARK   23  A    between atoms: _69  and  _71
REMARK   24  A    between atoms: _71  and  _72
REMARK   25  A    between atoms: _75  and  _77
REMARK   26  A    between atoms: _77  and  _78
REMARK   27  A    between atoms: _77  and  _80
REMARK   28  A    between atoms: _80  and  _81
REMARK   29  A    between atoms: _86  and  _88
REMARK   30  A    between atoms: _88  and  _89
REMARK   31  A    between atoms: _88  and  _91
REMARK   32  A    between atoms: _91  and  _92
REMARK   33  A    between atoms: _95  and  _97
REMARK   34  A    between atoms: _97  and  _98
REMARK   35  A    between atoms: _97  and  _100
REMARK   36  A    between atoms: _100  and  _101
REMARK   37  A    between atoms: _101  and  _102
REMARK   38  A    between atoms: _107  and  _109
REMARK   39  A    between atoms: _109  and  _110
REMARK   40  A    between atoms: _109  and  _112
REMARK   41  A    between atoms: _112  and  _113
REMARK   42  A    between atoms: _119  and  _121
REMARK   43  A    between atoms: _132  and  _135
REMARK   44  A    between atoms: _135  and  _136
REMARK   45  A    between atoms: _144  and  _145
REMARK   46  A    between atoms: _153  and  _155
REMARK   47  A    between atoms: _155  and  _156
REMARK   48  A    between atoms: _155  and  _158
REMARK   49  A    between atoms: _158  and  _159
REMARK   50  A    between atoms: _159  and  _160
REMARK   51  A    between atoms: _163  and  _165
REMARK   52  A    between atoms: _165  and  _166
REMARK   53  A    between atoms: _165  and  _168
REMARK   54  A    between atoms: _168  and  _169
REMARK   55  A    between atoms: _174  and  _176
REMARK   56  A    between atoms: _176  and  _177
REMARK   57  A    between atoms: _176  and  _179
REMARK   58  A    between atoms: _179  and  _180
REMARK   59  A    between atoms: _180  and  _181
REMARK   60  A    between atoms: _184  and  _186
REMARK   61  A    between atoms: _186  and  _187
REMARK   62  A    between atoms: _186  and  _189
REMARK   63  A    between atoms: _189  and  _190
REMARK   64  A    between atoms: _193  and  _195
REMARK   65  A    between atoms: _195  and  _196
REMARK   66  A    between atoms: _195  and  _198
REMARK   67  A    between atoms: _198  and  _199
REMARK   68  A    between atoms: _200  and  ZN_450
REMARK   69  A    between atoms: _204  and  _206
REMARK   70  A    between atoms: _206  and  _207
REMARK   71  A    between atoms: _206  and  _209
REMARK   72  A    between atoms: _209  and  _210
REMARK   73  A    between atoms: _213  and  _215
REMARK   74  A    between atoms: _215  and  _216
REMARK   75  A    between atoms: _215  and  _218
REMARK   76  A    between atoms: _221  and  _223
REMARK   77  A    between atoms: _223  and  _224
REMARK   78  A    between atoms: _223  and  _226
REMARK   79  A    between atoms: _226  and  _227
REMARK   80  A    between atoms: _232  and  _234
REMARK   81  A    between atoms: _234  and  _235
REMARK   82  A    between atoms: _234  and  _237
REMARK   83  A    between atoms: _237  and  _238
REMARK   84  A    between atoms: _244  and  _246
REMARK   85  A    between atoms: _246  and  _247
REMARK   86  A    between atoms: _249  and  _251
REMARK   87  A    between atoms: _251  and  _252
REMARK   88  A    between atoms: _251  and  _254
REMARK   89  A    between atoms: _254  and  _255
REMARK   90  A    between atoms: _255  and  _256
REMARK   91  A    between atoms: _256  and  _257
REMARK   92  A    between atoms: _257  and  _258
REMARK   93  A    between atoms: _262  and  _264
REMARK   94  A    between atoms: _264  and  _265
REMARK   95  A    between atoms: _264  and  _267
REMARK   96  A    between atoms: _270  and  _272
REMARK   97  A    between atoms: _272  and  _273
REMARK   98  A    between atoms: _272  and  _275
REMARK   99  A    between atoms: _275  and  _276
REMARK  100  A    between atoms: _276  and  _277
REMARK  101  A    between atoms: _282  and  _284
REMARK  102  A    between atoms: _284  and  _285
REMARK  103  A    between atoms: _284  and  _287
REMARK  104  A    between atoms: _287  and  _288
REMARK  105  A    between atoms: _291  and  _293
REMARK  106  A    between atoms: _293  and  _294
REMARK  107  A    between atoms: _297  and  _299
REMARK  108  A    between atoms: _299  and  _300
REMARK  109  A    between atoms: _299  and  _302
REMARK  110  A    between atoms: _305  and  _307
REMARK  111  A    between atoms: _307  and  _308
REMARK  112  A    between atoms: _307  and  _310
REMARK  113  A    between atoms: _310  and  _311
REMARK  114  A    between atoms: _314  and  _316
REMARK  115  A    between atoms: _316  and  _317
REMARK  116  A    between atoms: _319  and  _321
REMARK  117  A    between atoms: _321  and  _322
REMARK  118  A    between atoms: _324  and  _326
REMARK  119  A    between atoms: _326  and  _327
REMARK  120  A    between atoms: _326  and  _329
REMARK  121  A    between atoms: _329  and  _330
REMARK  122  A    between atoms: _332  and  _334
REMARK  123  A    between atoms: _334  and  _335
REMARK  124  A    between atoms: _334  and  _337
REMARK  125  A    between atoms: _337  and  _338
REMARK  126  A    between atoms: _341  and  _343
REMARK  127  A    between atoms: _343  and  _344
REMARK  128  A    between atoms: _343  and  _346
REMARK  129  A    between atoms: _346  and  _347
REMARK  130  A    between atoms: _350  and  _352
REMARK  131  A    between atoms: _352  and  _353
REMARK  132  A    between atoms: _352  and  _355
REMARK  133  A    between atoms: _355  and  _356
REMARK  134  A    between atoms: _360  and  _361
REMARK  135  A    between atoms: _367  and  _368
REMARK  136  A    between atoms: _373  and  _375
REMARK  137  A    between atoms: _375  and  _376
REMARK  138  A    between atoms: _375  and  _378
REMARK  139  A    between atoms: _378  and  _379
REMARK  140  A    between atoms: _382  and  _384
REMARK  141  A    between atoms: _384  and  _385
REMARK  142  A    between atoms: _384  and  _387
REMARK  143  A    between atoms: _387  and  _388
REMARK  144  A    between atoms: _391  and  _393
REMARK  145  A    between atoms: _393  and  _394
REMARK  146  A    between atoms: _393  and  _396
REMARK  147  A    between atoms: _398  and  _400
REMARK  148  A    between atoms: _400  and  _401
REMARK  149  A    between atoms: _400  and  _403
REMARK  150  A    between atoms: _406  and  _408
REMARK  151  A    between atoms: _408  and  _409
REMARK  152  A    between atoms: _408  and  _411
REMARK  153  A    between atoms: _411  and  _412
REMARK  154  A    between atoms: _422  and  _424
REMARK  155  A    between atoms: _424  and  _425
REMARK  156  A    between atoms: _424  and  _427
REMARK  157  A    between atoms: _427  and  _428
REMARK  158  A    between atoms: _433  and  _435
REMARK  159  A    between atoms: _435  and  _436
REMARK  160  A    between atoms: _435  and  _438
REMARK  161  A    between atoms: _438  and  _439
REMARK  162  A    between atoms: _439  and  _440
REMARK  163  A    between atoms: _440  and  _441
REMARK                            x       y       z     vdW  Elec       q    Type
REMARK                         _______ _______ _______ _____ _____    ______ ____
ROOT
ATOM      1  O   HOH     1      -2.261  -3.009  11.400  0.00  0.00    +0.000 OA
ENDROOT
TORSDOF 0
REMARK  Name = ../refined-set-2016/3sap/3sap_pocket.pdb
REMARK  163 active torsions:
REMARK  status: ('A' for Active; 'I' for Inactive)
REMARK    1  A    between atoms: _1  and  _3
REMARK    2  A    between atoms: _3  and  _4
REMARK    3  A    between atoms: _3  and  _6
REMARK    4  A    between atoms: _6  and  _7
REMARK    5  A    between atoms: _17  and  _19
REMARK    6  A    between atoms: _19  and  _20
REMARK    7  A    between atoms: _19  and  _22
REMARK    8  A    between atoms: _22  and  _23
REMARK    9  A    between atoms: _28  and  _29
REMARK   10  A    between atoms: _31  and  _33
REMARK   11  A    between atoms: _33  and  _34
REMARK   12  A    between atoms: _33  and  _36
REMARK   13  A    between atoms: _36  and  _37
REMARK   14  A    between atoms: _43  and  _45
REMARK   15  A    between atoms: _45  and  _46
REMARK   16  A    between atoms: _45  and  _48
REMARK   17  A    between atoms: _48  and  _49
REMARK   18  A    between atoms: _52  and  _53
REMARK   19  A    between atoms: _58  and  _60
REMARK   20  A    between atoms: _60  and  _61
REMARK   21  A    between atoms: _60  and  _63
REMARK   22  A    between atoms: _63  and  _64
REMARK   23  A    between atoms: _69  and  _71
REMARK   24  A    between atoms: _71  and  _72
REMARK   25  A    between atoms: _75  and  _77
REMARK   26  A    between atoms: _77  and  _78
REMARK   27  A    between atoms: _77  and  _80
REMARK   28  A    between atoms: _80  and  _81
REMARK   29  A    between atoms: _86  and  _88
REMARK   30  A    between atoms: _88  and  _89
REMARK   31  A    between atoms: _88  and  _91
REMARK   32  A    between atoms: _91  and  _92
REMARK   33  A    between atoms: _95  and  _97
REMARK   34  A    between atoms: _97  and  _98
REMARK   35  A    between atoms: _97  and  _100
REMARK   36  A    between atoms: _100  and  _101
REMARK   37  A    between atoms: _101  and  _102
REMARK   38  A    between atoms: _107  and  _109
REMARK   39  A    between atoms: _109  and  _110
REMARK   40  A    between atoms: _109  and  _112
REMARK   41  A    between atoms: _112  and  _113
REMARK   42  A    between atoms: _119  and  _121
REMARK   43  A    between atoms: _132  and  _135
REMARK   44  A    between atoms: _135  and  _136
REMARK   45  A    between atoms: _144  and  _145
REMARK   46  A    between atoms: _153  and  _155
REMARK   47  A    between atoms: _155  and  _156
REMARK   48  A    between atoms: _155  and  _158
REMARK   49  A    between atoms: _158  and  _159
REMARK   50  A    between atoms: _159  and  _160
REMARK   51  A    between atoms: _163  and  _165
REMARK   52  A    between atoms: _165  and  _166
REMARK   53  A    between atoms: _165  and  _168
REMARK   54  A    between atoms: _168  and  _169
REMARK   55  A    between atoms: _174  and  _176
REMARK   56  A    between atoms: _176  and  _177
REMARK   57  A    between atoms: _176  and  _179
REMARK   58  A    between atoms: _179  and  _180
REMARK   59  A    between atoms: _180  and  _181
REMARK   60  A    between atoms: _184  and  _186
REMARK   61  A    between atoms: _186  and  _187
REMARK   62  A    between atoms: _186  and  _189
REMARK   63  A    between atoms: _189  and  _190
REMARK   64  A    between atoms: _193  and  _195
REMARK   65  A    between atoms: _195  and  _196
REMARK   66  A    between atoms: _195  and  _198
REMARK   67  A    between atoms: _198  and  _199
REMARK   68  A    between atoms: _200  and  ZN_450
REMARK   69  A    between atoms: _204  and  _206
REMARK   70  A    between atoms: _206  and  _207
REMARK   71  A    between atoms: _206  and  _209
REMARK   72  A    between atoms: _209  and  _210
REMARK   73  A    between atoms: _213  and  _215
REMARK   74  A    between atoms: _215  and  _216
REMARK   75  A    between atoms: _215  and  _218
REMARK   76  A    between atoms: _221  and  _223
REMARK   77  A    between atoms: _223  and  _224
REMARK   78  A    between atoms: _223  and  _226
REMARK   79  A    between atoms: _226  and  _227
REMARK   80  A    between atoms: _232  and  _234
REMARK   81  A    between atoms: _234  and  _235
REMARK   82  A    between atoms: _234  and  _237
REMARK   83  A    between atoms: _237  and  _238
REMARK   84  A    between atoms: _244  and  _246
REMARK   85  A    between atoms: _246  and  _247
REMARK   86  A    between atoms: _249  and  _251
REMARK   87  A    between atoms: _251  and  _252
REMARK   88  A    between atoms: _251  and  _254
REMARK   89  A    between atoms: _254  and  _255
REMARK   90  A    between atoms: _255  and  _256
REMARK   91  A    between atoms: _256  and  _257
REMARK   92  A    between atoms: _257  and  _258
REMARK   93  A    between atoms: _262  and  _264
REMARK   94  A    between atoms: _264  and  _265
REMARK   95  A    between atoms: _264  and  _267
REMARK   96  A    between atoms: _270  and  _272
REMARK   97  A    between atoms: _272  and  _273
REMARK   98  A    between atoms: _272  and  _275
REMARK   99  A    between atoms: _275  and  _276
REMARK  100  A    between atoms: _276  and  _277
REMARK  101  A    between atoms: _282  and  _284
REMARK  102  A    between atoms: _284  and  _285
REMARK  103  A    between atoms: _284  and  _287
REMARK  104  A    between atoms: _287  and  _288
REMARK  105  A    between atoms: _291  and  _293
REMARK  106  A    between atoms: _293  and  _294
REMARK  107  A    between atoms: _297  and  _299
REMARK  108  A    between atoms: _299  and  _300
REMARK  109  A    between atoms: _299  and  _302
REMARK  110  A    between atoms: _305  and  _307
REMARK  111  A    between atoms: _307  and  _308
REMARK  112  A    between atoms: _307  and  _310
REMARK  113  A    between atoms: _310  and  _311
REMARK  114  A    between atoms: _314  and  _316
REMARK  115  A    between atoms: _316  and  _317
REMARK  116  A    between atoms: _319  and  _321
REMARK  117  A    between atoms: _321  and  _322
REMARK  118  A    between atoms: _324  and  _326
REMARK  119  A    between atoms: _326  and  _327
REMARK  120  A    between atoms: _326  and  _329
REMARK  121  A    between atoms: _329  and  _330
REMARK  122  A    between atoms: _332  and  _334
REMARK  123  A    between atoms: _334  and  _335
REMARK  124  A    between atoms: _334  and  _337
REMARK  125  A    between atoms: _337  and  _338
REMARK  126  A    between atoms: _341  and  _343
REMARK  127  A    between atoms: _343  and  _344
REMARK  128  A    between atoms: _343  and  _346
REMARK  129  A    between atoms: _346  and  _347
REMARK  130  A    between atoms: _350  and  _352
REMARK  131  A    between atoms: _352  and  _353
REMARK  132  A    between atoms: _352  and  _355
REMARK  133  A    between atoms: _355  and  _356
REMARK  134  A    between atoms: _360  and  _361
REMARK  135  A    between atoms: _367  and  _368
REMARK  136  A    between atoms: _373  and  _375
REMARK  137  A    between atoms: _375  and  _376
REMARK  138  A    between atoms: _375  and  _378
REMARK  139  A    between atoms: _378  and  _379
REMARK  140  A    between atoms: _382  and  _384
REMARK  141  A    between atoms: _384  and  _385
REMARK  142  A    between atoms: _384  and  _387
REMARK  143  A    between atoms: _387  and  _388
REMARK  144  A    between atoms: _391  and  _393
REMARK  145  A    between atoms: _393  and  _394
REMARK  146  A    between atoms: _393  and  _396
REMARK  147  A    between atoms: _398  and  _400
REMARK  148  A    between atoms: _400  and  _401
REMARK  149  A    between atoms: _400  and  _403
REMARK  150  A    between atoms: _406  and  _408
REMARK  151  A    between atoms: _408  and  _409
REMARK  152  A    between atoms: _408  and  _411
REMARK  153  A    between atoms: _411  and  _412
REMARK  154  A    between atoms: _422  and  _424
REMARK  155  A    between atoms: _424  and  _425
REMARK  156  A    between atoms: _424  and  _427
REMARK  157  A    between atoms: _427  and  _428
REMARK  158  A    between atoms: _433  and  _435
REMARK  159  A    between atoms: _435  and  _436
REMARK  160  A    between atoms: _435  and  _438
REMARK  161  A    between atoms: _438  and  _439
REMARK  162  A    between atoms: _439  and  _440
REMARK  163  A    between atoms: _440  and  _441
REMARK                            x       y       z     vdW  Elec       q    Type
REMARK                         _______ _______ _______ _____ _____    ______ ____
ROOT
ATOM      1  O   HOH     1      -0.381  10.929  23.391  0.00  0.00    +0.000 OA
ENDROOT
TORSDOF 0
REMARK  Name = ../refined-set-2016/3sap/3sap_pocket.pdb
REMARK  163 active torsions:
REMARK  status: ('A' for Active; 'I' for Inactive)
REMARK    1  A    between atoms: _1  and  _3
REMARK    2  A    between atoms: _3  and  _4
REMARK    3  A    between atoms: _3  and  _6
REMARK    4  A    between atoms: _6  and  _7
REMARK    5  A    between atoms: _17  and  _19
REMARK    6  A    between atoms: _19  and  _20
REMARK    7  A    between atoms: _19  and  _22
REMARK    8  A    between atoms: _22  and  _23
REMARK    9  A    between atoms: _28  and  _29
REMARK   10  A    between atoms: _31  and  _33
REMARK   11  A    between atoms: _33  and  _34
REMARK   12  A    between atoms: _33  and  _36
REMARK   13  A    between atoms: _36  and  _37
REMARK   14  A    between atoms: _43  and  _45
REMARK   15  A    between atoms: _45  and  _46
REMARK   16  A    between atoms: _45  and  _48
REMARK   17  A    between atoms: _48  and  _49
REMARK   18  A    between atoms: _52  and  _53
REMARK   19  A    between atoms: _58  and  _60
REMARK   20  A    between atoms: _60  and  _61
REMARK   21  A    between atoms: _60  and  _63
REMARK   22  A    between atoms: _63  and  _64
REMARK   23  A    between atoms: _69  and  _71
REMARK   24  A    between atoms: _71  and  _72
REMARK   25  A    between atoms: _75  and  _77
REMARK   26  A    between atoms: _77  and  _78
REMARK   27  A    between atoms: _77  and  _80
REMARK   28  A    between atoms: _80  and  _81
REMARK   29  A    between atoms: _86  and  _88
REMARK   30  A    between atoms: _88  and  _89
REMARK   31  A    between atoms: _88  and  _91
REMARK   32  A    between atoms: _91  and  _92
REMARK   33  A    between atoms: _95  and  _97
REMARK   34  A    between atoms: _97  and  _98
REMARK   35  A    between atoms: _97  and  _100
REMARK   36  A    between atoms: _100  and  _101
REMARK   37  A    between atoms: _101  and  _102
REMARK   38  A    between atoms: _107  and  _109
REMARK   39  A    between atoms: _109  and  _110
REMARK   40  A    between atoms: _109  and  _112
REMARK   41  A    between atoms: _112  and  _113
REMARK   42  A    between atoms: _119  and  _121
REMARK   43  A    between atoms: _132  and  _135
REMARK   44  A    between atoms: _135  and  _136
REMARK   45  A    between atoms: _144  and  _145
REMARK   46  A    between atoms: _153  and  _155
REMARK   47  A    between atoms: _155  and  _156
REMARK   48  A    between atoms: _155  and  _158
REMARK   49  A    between atoms: _158  and  _159
REMARK   50  A    between atoms: _159  and  _160
REMARK   51  A    between atoms: _163  and  _165
REMARK   52  A    between atoms: _165  and  _166
REMARK   53  A    between atoms: _165  and  _168
REMARK   54  A    between atoms: _168  and  _169
REMARK   55  A    between atoms: _174  and  _176
REMARK   56  A    between atoms: _176  and  _177
REMARK   57  A    between atoms: _176  and  _179
REMARK   58  A    between atoms: _179  and  _180
REMARK   59  A    between atoms: _180  and  _181
REMARK   60  A    between atoms: _184  and  _186
REMARK   61  A    between atoms: _186  and  _187
REMARK   62  A    between atoms: _186  and  _189
REMARK   63  A    between atoms: _189  and  _190
REMARK   64  A    between atoms: _193  and  _195
REMARK   65  A    between atoms: _195  and  _196
REMARK   66  A    between atoms: _195  and  _198
REMARK   67  A    between atoms: _198  and  _199
REMARK   68  A    between atoms: _200  and  ZN_450
REMARK   69  A    between atoms: _204  and  _206
REMARK   70  A    between atoms: _206  and  _207
REMARK   71  A    between atoms: _206  and  _209
REMARK   72  A    between atoms: _209  and  _210
REMARK   73  A    between atoms: _213  and  _215
REMARK   74  A    between atoms: _215  and  _216
REMARK   75  A    between atoms: _215  and  _218
REMARK   76  A    between atoms: _221  and  _223
REMARK   77  A    between atoms: _223  and  _224
REMARK   78  A    between atoms: _223  and  _226
REMARK   79  A    between atoms: _226  and  _227
REMARK   80  A    between atoms: _232  and  _234
REMARK   81  A    between atoms: _234  and  _235
REMARK   82  A    between atoms: _234  and  _237
REMARK   83  A    between atoms: _237  and  _238
REMARK   84  A    between atoms: _244  and  _246
REMARK   85  A    between atoms: _246  and  _247
REMARK   86  A    between atoms: _249  and  _251
REMARK   87  A    between atoms: _251  and  _252
REMARK   88  A    between atoms: _251  and  _254
REMARK   89  A    between atoms: _254  and  _255
REMARK   90  A    between atoms: _255  and  _256
REMARK   91  A    between atoms: _256  and  _257
REMARK   92  A    between atoms: _257  and  _258
REMARK   93  A    between atoms: _262  and  _264
REMARK   94  A    between atoms: _264  and  _265
REMARK   95  A    between atoms: _264  and  _267
REMARK   96  A    between atoms: _270  and  _272
REMARK   97  A    between atoms: _272  and  _273
REMARK   98  A    between atoms: _272  and  _275
REMARK   99  A    between atoms: _275  and  _276
REMARK  100  A    between atoms: _276  and  _277
REMARK  101  A    between atoms: _282  and  _284
REMARK  102  A    between atoms: _284  and  _285
REMARK  103  A    between atoms: _284  and  _287
REMARK  104  A    between atoms: _287  and  _288
REMARK  105  A    between atoms: _291  and  _293
REMARK  106  A    between atoms: _293  and  _294
REMARK  107  A    between atoms: _297  and  _299
REMARK  108  A    between atoms: _299  and  _300
REMARK  109  A    between atoms: _299  and  _302
REMARK  110  A    between atoms: _305  and  _307
REMARK  111  A    between atoms: _307  and  _308
REMARK  112  A    between atoms: _307  and  _310
REMARK  113  A    between atoms: _310  and  _311
REMARK  114  A    between atoms: _314  and  _316
REMARK  115  A    between atoms: _316  and  _317
REMARK  116  A    between atoms: _319  and  _321
REMARK  117  A    between atoms: _321  and  _322
REMARK  118  A    between atoms: _324  and  _326
REMARK  119  A    between atoms: _326  and  _327
REMARK  120  A    between atoms: _326  and  _329
REMARK  121  A    between atoms: _329  and  _330
REMARK  122  A    between atoms: _332  and  _334
REMARK  123  A    between atoms: _334  and  _335
REMARK  124  A    between atoms: _334  and  _337
REMARK  125  A    between atoms: _337  and  _338
REMARK  126  A    between atoms: _341  and  _343
REMARK  127  A    between atoms: _343  and  _344
REMARK  128  A    between atoms: _343  and  _346
REMARK  129  A    between atoms: _346  and  _347
REMARK  130  A    between atoms: _350  and  _352
REMARK  131  A    between atoms: _352  and  _353
REMARK  132  A    between atoms: _352  and  _355
REMARK  133  A    between atoms: _355  and  _356
REMARK  134  A    between atoms: _360  and  _361
REMARK  135  A    between atoms: _367  and  _368
REMARK  136  A    between atoms: _373  and  _375
REMARK  137  A    between atoms: _375  and  _376
REMARK  138  A    between atoms: _375  and  _378
REMARK  139  A    between atoms: _378  and  _379
REMARK  140  A    between atoms: _382  and  _384
REMARK  141  A    between atoms: _384  and  _385
REMARK  142  A    between atoms: _384  and  _387
REMARK  143  A    between atoms: _387  and  _388
REMARK  144  A    between atoms: _391  and  _393
REMARK  145  A    between atoms: _393  and  _394
REMARK  146  A    between atoms: _393  and  _396
REMARK  147  A    between atoms: _398  and  _400
REMARK  148  A    between atoms: _400  and  _401
REMARK  149  A    between atoms: _400  and  _403
REMARK  150  A    between atoms: _406  and  _408
REMARK  151  A    between atoms: _408  and  _409
REMARK  152  A    between atoms: _408  and  _411
REMARK  153  A    between atoms: _411  and  _412
REMARK  154  A    between atoms: _422  and  _424
REMARK  155  A    between atoms: _424  and  _425
REMARK  156  A    between atoms: _424  and  _427
REMARK  157  A    between atoms: _427  and  _428
REMARK  158  A    between atoms: _433  and  _435
REMARK  159  A    between atoms: _435  and  _436
REMARK  160  A    between atoms: _435  and  _438
REMARK  161  A    between atoms: _438  and  _439
REMARK  162  A    between atoms: _439  and  _440
REMARK  163  A    between atoms: _440  and  _441
REMARK                            x       y       z     vdW  Elec       q    Type
REMARK                         _______ _______ _______ _____ _____    ______ ____
ROOT
ATOM      1  O   HOH     1       3.893   9.675  23.703  0.00  0.00    +0.000 OA
ENDROOT
TORSDOF 0
REMARK  Name = ../refined-set-2016/3sap/3sap_pocket.pdb
REMARK  163 active torsions:
REMARK  status: ('A' for Active; 'I' for Inactive)
REMARK    1  A    between atoms: _1  and  _3
REMARK    2  A    between atoms: _3  and  _4
REMARK    3  A    between atoms: _3  and  _6
REMARK    4  A    between atoms: _6  and  _7
REMARK    5  A    between atoms: _17  and  _19
REMARK    6  A    between atoms: _19  and  _20
REMARK    7  A    between atoms: _19  and  _22
REMARK    8  A    between atoms: _22  and  _23
REMARK    9  A    between atoms: _28  and  _29
REMARK   10  A    between atoms: _31  and  _33
REMARK   11  A    between atoms: _33  and  _34
REMARK   12  A    between atoms: _33  and  _36
REMARK   13  A    between atoms: _36  and  _37
REMARK   14  A    between atoms: _43  and  _45
REMARK   15  A    between atoms: _45  and  _46
REMARK   16  A    between atoms: _45  and  _48
REMARK   17  A    between atoms: _48  and  _49
REMARK   18  A    between atoms: _52  and  _53
REMARK   19  A    between atoms: _58  and  _60
REMARK   20  A    between atoms: _60  and  _61
REMARK   21  A    between atoms: _60  and  _63
REMARK   22  A    between atoms: _63  and  _64
REMARK   23  A    between atoms: _69  and  _71
REMARK   24  A    between atoms: _71  and  _72
REMARK   25  A    between atoms: _75  and  _77
REMARK   26  A    between atoms: _77  and  _78
REMARK   27  A    between atoms: _77  and  _80
REMARK   28  A    between atoms: _80  and  _81
REMARK   29  A    between atoms: _86  and  _88
REMARK   30  A    between atoms: _88  and  _89
REMARK   31  A    between atoms: _88  and  _91
REMARK   32  A    between atoms: _91  and  _92
REMARK   33  A    between atoms: _95  and  _97
REMARK   34  A    between atoms: _97  and  _98
REMARK   35  A    between atoms: _97  and  _100
REMARK   36  A    between atoms: _100  and  _101
REMARK   37  A    between atoms: _101  and  _102
REMARK   38  A    between atoms: _107  and  _109
REMARK   39  A    between atoms: _109  and  _110
REMARK   40  A    between atoms: _109  and  _112
REMARK   41  A    between atoms: _112  and  _113
REMARK   42  A    between atoms: _119  and  _121
REMARK   43  A    between atoms: _132  and  _135
REMARK   44  A    between atoms: _135  and  _136
REMARK   45  A    between atoms: _144  and  _145
REMARK   46  A    between atoms: _153  and  _155
REMARK   47  A    between atoms: _155  and  _156
REMARK   48  A    between atoms: _155  and  _158
REMARK   49  A    between atoms: _158  and  _159
REMARK   50  A    between atoms: _159  and  _160
REMARK   51  A    between atoms: _163  and  _165
REMARK   52  A    between atoms: _165  and  _166
REMARK   53  A    between atoms: _165  and  _168
REMARK   54  A    between atoms: _168  and  _169
REMARK   55  A    between atoms: _174  and  _176
REMARK   56  A    between atoms: _176  and  _177
REMARK   57  A    between atoms: _176  and  _179
REMARK   58  A    between atoms: _179  and  _180
REMARK   59  A    between atoms: _180  and  _181
REMARK   60  A    between atoms: _184  and  _186
REMARK   61  A    between atoms: _186  and  _187
REMARK   62  A    between atoms: _186  and  _189
REMARK   63  A    between atoms: _189  and  _190
REMARK   64  A    between atoms: _193  and  _195
REMARK   65  A    between atoms: _195  and  _196
REMARK   66  A    between atoms: _195  and  _198
REMARK   67  A    between atoms: _198  and  _199
REMARK   68  A    between atoms: _200  and  ZN_450
REMARK   69  A    between atoms: _204  and  _206
REMARK   70  A    between atoms: _206  and  _207
REMARK   71  A    between atoms: _206  and  _209
REMARK   72  A    between atoms: _209  and  _210
REMARK   73  A    between atoms: _213  and  _215
REMARK   74  A    between atoms: _215  and  _216
REMARK   75  A    between atoms: _215  and  _218
REMARK   76  A    between atoms: _221  and  _223
REMARK   77  A    between atoms: _223  and  _224
REMARK   78  A    between atoms: _223  and  _226
REMARK   79  A    between atoms: _226  and  _227
REMARK   80  A    between atoms: _232  and  _234
REMARK   81  A    between atoms: _234  and  _235
REMARK   82  A    between atoms: _234  and  _237
REMARK   83  A    between atoms: _237  and  _238
REMARK   84  A    between atoms: _244  and  _246
REMARK   85  A    between atoms: _246  and  _247
REMARK   86  A    between atoms: _249  and  _251
REMARK   87  A    between atoms: _251  and  _252
REMARK   88  A    between atoms: _251  and  _254
REMARK   89  A    between atoms: _254  and  _255
REMARK   90  A    between atoms: _255  and  _256
REMARK   91  A    between atoms: _256  and  _257
REMARK   92  A    between atoms: _257  and  _258
REMARK   93  A    between atoms: _262  and  _264
REMARK   94  A    between atoms: _264  and  _265
REMARK   95  A    between atoms: _264  and  _267
REMARK   96  A    between atoms: _270  and  _272
REMARK   97  A    between atoms: _272  and  _273
REMARK   98  A    between atoms: _272  and  _275
REMARK   99  A    between atoms: _275  and  _276
REMARK  100  A    between atoms: _276  and  _277
REMARK  101  A    between atoms: _282  and  _284
REMARK  102  A    between atoms: _284  and  _285
REMARK  103  A    between atoms: _284  and  _287
REMARK  104  A    between atoms: _287  and  _288
REMARK  105  A    between atoms: _291  and  _293
REMARK  106  A    between atoms: _293  and  _294
REMARK  107  A    between atoms: _297  and  _299
REMARK  108  A    between atoms: _299  and  _300
REMARK  109  A    between atoms: _299  and  _302
REMARK  110  A    between atoms: _305  and  _307
REMARK  111  A    between atoms: _307  and  _308
REMARK  112  A    between atoms: _307  and  _310
REMARK  113  A    between atoms: _310  and  _311
REMARK  114  A    between atoms: _314  and  _316
REMARK  115  A    between atoms: _316  and  _317
REMARK  116  A    between atoms: _319  and  _321
REMARK  117  A    between atoms: _321  and  _322
REMARK  118  A    between atoms: _324  and  _326
REMARK  119  A    between atoms: _326  and  _327
REMARK  120  A    between atoms: _326  and  _329
REMARK  121  A    between atoms: _329  and  _330
REMARK  122  A    between atoms: _332  and  _334
REMARK  123  A    between atoms: _334  and  _335
REMARK  124  A    between atoms: _334  and  _337
REMARK  125  A    between atoms: _337  and  _338
REMARK  126  A    between atoms: _341  and  _343
REMARK  127  A    between atoms: _343  and  _344
REMARK  128  A    between atoms: _343  and  _346
REMARK  129  A    between atoms: _346  and  _347
REMARK  130  A    between atoms: _350  and  _352
REMARK  131  A    between atoms: _352  and  _353
REMARK  132  A    between atoms: _352  and  _355
REMARK  133  A    between atoms: _355  and  _356
REMARK  134  A    between atoms: _360  and  _361
REMARK  135  A    between atoms: _367  and  _368
REMARK  136  A    between atoms: _373  and  _375
REMARK  137  A    between atoms: _375  and  _376
REMARK  138  A    between atoms: _375  and  _378
REMARK  139  A    between atoms: _378  and  _379
REMARK  140  A    between atoms: _382  and  _384
REMARK  141  A    between atoms: _384  and  _385
REMARK  142  A    between atoms: _384  and  _387
REMARK  143  A    between atoms: _387  and  _388
REMARK  144  A    between atoms: _391  and  _393
REMARK  145  A    between atoms: _393  and  _394
REMARK  146  A    between atoms: _393  and  _396
REMARK  147  A    between atoms: _398  and  _400
REMARK  148  A    between atoms: _400  and  _401
REMARK  149  A    between atoms: _400  and  _403
REMARK  150  A    between atoms: _406  and  _408
REMARK  151  A    between atoms: _408  and  _409
REMARK  152  A    between atoms: _408  and  _411
REMARK  153  A    between atoms: _411  and  _412
REMARK  154  A    between atoms: _422  and  _424
REMARK  155  A    between atoms: _424  and  _425
REMARK  156  A    between atoms: _424  and  _427
REMARK  157  A    between atoms: _427  and  _428
REMARK  158  A    between atoms: _433  and  _435
REMARK  159  A    between atoms: _435  and  _436
REMARK  160  A    between atoms: _435  and  _438
REMARK  161  A    between atoms: _438  and  _439
REMARK  162  A    between atoms: _439  and  _440
REMARK  163  A    between atoms: _440  and  _441
REMARK                            x       y       z     vdW  Elec       q    Type
REMARK                         _______ _______ _______ _____ _____    ______ ____
ROOT
ATOM      1  O   HOH     1       1.756  12.397  22.796  0.00  0.00    +0.000 OA
ENDROOT
TORSDOF 0
REMARK  Name = ../refined-set-2016/3sap/3sap_pocket.pdb
REMARK  163 active torsions:
REMARK  status: ('A' for Active; 'I' for Inactive)
REMARK    1  A    between atoms: _1  and  _3
REMARK    2  A    between atoms: _3  and  _4
REMARK    3  A    between atoms: _3  and  _6
REMARK    4  A    between atoms: _6  and  _7
REMARK    5  A    between atoms: _17  and  _19
REMARK    6  A    between atoms: _19  and  _20
REMARK    7  A    between atoms: _19  and  _22
REMARK    8  A    between atoms: _22  and  _23
REMARK    9  A    between atoms: _28  and  _29
REMARK   10  A    between atoms: _31  and  _33
REMARK   11  A    between atoms: _33  and  _34
REMARK   12  A    between atoms: _33  and  _36
REMARK   13  A    between atoms: _36  and  _37
REMARK   14  A    between atoms: _43  and  _45
REMARK   15  A    between atoms: _45  and  _46
REMARK   16  A    between atoms: _45  and  _48
REMARK   17  A    between atoms: _48  and  _49
REMARK   18  A    between atoms: _52  and  _53
REMARK   19  A    between atoms: _58  and  _60
REMARK   20  A    between atoms: _60  and  _61
REMARK   21  A    between atoms: _60  and  _63
REMARK   22  A    between atoms: _63  and  _64
REMARK   23  A    between atoms: _69  and  _71
REMARK   24  A    between atoms: _71  and  _72
REMARK   25  A    between atoms: _75  and  _77
REMARK   26  A    between atoms: _77  and  _78
REMARK   27  A    between atoms: _77  and  _80
REMARK   28  A    between atoms: _80  and  _81
REMARK   29  A    between atoms: _86  and  _88
REMARK   30  A    between atoms: _88  and  _89
REMARK   31  A    between atoms: _88  and  _91
REMARK   32  A    between atoms: _91  and  _92
REMARK   33  A    between atoms: _95  and  _97
REMARK   34  A    between atoms: _97  and  _98
REMARK   35  A    between atoms: _97  and  _100
REMARK   36  A    between atoms: _100  and  _101
REMARK   37  A    between atoms: _101  and  _102
REMARK   38  A    between atoms: _107  and  _109
REMARK   39  A    between atoms: _109  and  _110
REMARK   40  A    between atoms: _109  and  _112
REMARK   41  A    between atoms: _112  and  _113
REMARK   42  A    between atoms: _119  and  _121
REMARK   43  A    between atoms: _132  and  _135
REMARK   44  A    between atoms: _135  and  _136
REMARK   45  A    between atoms: _144  and  _145
REMARK   46  A    between atoms: _153  and  _155
REMARK   47  A    between atoms: _155  and  _156
REMARK   48  A    between atoms: _155  and  _158
REMARK   49  A    between atoms: _158  and  _159
REMARK   50  A    between atoms: _159  and  _160
REMARK   51  A    between atoms: _163  and  _165
REMARK   52  A    between atoms: _165  and  _166
REMARK   53  A    between atoms: _165  and  _168
REMARK   54  A    between atoms: _168  and  _169
REMARK   55  A    between atoms: _174  and  _176
REMARK   56  A    between atoms: _176  and  _177
REMARK   57  A    between atoms: _176  and  _179
REMARK   58  A    between atoms: _179  and  _180
REMARK   59  A    between atoms: _180  and  _181
REMARK   60  A    between atoms: _184  and  _186
REMARK   61  A    between atoms: _186  and  _187
REMARK   62  A    between atoms: _186  and  _189
REMARK   63  A    between atoms: _189  and  _190
REMARK   64  A    between atoms: _193  and  _195
REMARK   65  A    between atoms: _195  and  _196
REMARK   66  A    between atoms: _195  and  _198
REMARK   67  A    between atoms: _198  and  _199
REMARK   68  A    between atoms: _200  and  ZN_450
REMARK   69  A    between atoms: _204  and  _206
REMARK   70  A    between atoms: _206  and  _207
REMARK   71  A    between atoms: _206  and  _209
REMARK   72  A    between atoms: _209  and  _210
REMARK   73  A    between atoms: _213  and  _215
REMARK   74  A    between atoms: _215  and  _216
REMARK   75  A    between atoms: _215  and  _218
REMARK   76  A    between atoms: _221  and  _223
REMARK   77  A    between atoms: _223  and  _224
REMARK   78  A    between atoms: _223  and  _226
REMARK   79  A    between atoms: _226  and  _227
REMARK   80  A    between atoms: _232  and  _234
REMARK   81  A    between atoms: _234  and  _235
REMARK   82  A    between atoms: _234  and  _237
REMARK   83  A    between atoms: _237  and  _238
REMARK   84  A    between atoms: _244  and  _246
REMARK   85  A    between atoms: _246  and  _247
REMARK   86  A    between atoms: _249  and  _251
REMARK   87  A    between atoms: _251  and  _252
REMARK   88  A    between atoms: _251  and  _254
REMARK   89  A    between atoms: _254  and  _255
REMARK   90  A    between atoms: _255  and  _256
REMARK   91  A    between atoms: _256  and  _257
REMARK   92  A    between atoms: _257  and  _258
REMARK   93  A    between atoms: _262  and  _264
REMARK   94  A    between atoms: _264  and  _265
REMARK   95  A    between atoms: _264  and  _267
REMARK   96  A    between atoms: _270  and  _272
REMARK   97  A    between atoms: _272  and  _273
REMARK   98  A    between atoms: _272  and  _275
REMARK   99  A    between atoms: _275  and  _276
REMARK  100  A    between atoms: _276  and  _277
REMARK  101  A    between atoms: _282  and  _284
REMARK  102  A    between atoms: _284  and  _285
REMARK  103  A    between atoms: _284  and  _287
REMARK  104  A    between atoms: _287  and  _288
REMARK  105  A    between atoms: _291  and  _293
REMARK  106  A    between atoms: _293  and  _294
REMARK  107  A    between atoms: _297  and  _299
REMARK  108  A    between atoms: _299  and  _300
REMARK  109  A    between atoms: _299  and  _302
REMARK  110  A    between atoms: _305  and  _307
REMARK  111  A    between atoms: _307  and  _308
REMARK  112  A    between atoms: _307  and  _310
REMARK  113  A    between atoms: _310  and  _311
REMARK  114  A    between atoms: _314  and  _316
REMARK  115  A    between atoms: _316  and  _317
REMARK  116  A    between atoms: _319  and  _321
REMARK  117  A    between atoms: _321  and  _322
REMARK  118  A    between atoms: _324  and  _326
REMARK  119  A    between atoms: _326  and  _327
REMARK  120  A    between atoms: _326  and  _329
REMARK  121  A    between atoms: _329  and  _330
REMARK  122  A    between atoms: _332  and  _334
REMARK  123  A    between atoms: _334  and  _335
REMARK  124  A    between atoms: _334  and  _337
REMARK  125  A    between atoms: _337  and  _338
REMARK  126  A    between atoms: _341  and  _343
REMARK  127  A    between atoms: _343  and  _344
REMARK  128  A    between atoms: _343  and  _346
REMARK  129  A    between atoms: _346  and  _347
REMARK  130  A    between atoms: _350  and  _352
REMARK  131  A    between atoms: _352  and  _353
REMARK  132  A    between atoms: _352  and  _355
REMARK  133  A    between atoms: _355  and  _356
REMARK  134  A    between atoms: _360  and  _361
REMARK  135  A    between atoms: _367  and  _368
REMARK  136  A    between atoms: _373  and  _375
REMARK  137  A    between atoms: _375  and  _376
REMARK  138  A    between atoms: _375  and  _378
REMARK  139  A    between atoms: _378  and  _379
REMARK  140  A    between atoms: _382  and  _384
REMARK  141  A    between atoms: _384  and  _385
REMARK  142  A    between atoms: _384  and  _387
REMARK  143  A    between atoms: _387  and  _388
REMARK  144  A    between atoms: _391  and  _393
REMARK  145  A    between atoms: _393  and  _394
REMARK  146  A    between atoms: _393  and  _396
REMARK  147  A    between atoms: _398  and  _400
REMARK  148  A    between atoms: _400  and  _401
REMARK  149  A    between atoms: _400  and  _403
REMARK  150  A    between atoms: _406  and  _408
REMARK  151  A    between atoms: _408  and  _409
REMARK  152  A    between atoms: _408  and  _411
REMARK  153  A    between atoms: _411  and  _412
REMARK  154  A    between atoms: _422  and  _424
REMARK  155  A    between atoms: _424  and  _425
REMARK  156  A    between atoms: _424  and  _427
REMARK  157  A    between atoms: _427  and  _428
REMARK  158  A    between atoms: _433  and  _435
REMARK  159  A    between atoms: _435  and  _436
REMARK  160  A    between atoms: _435  and  _438
REMARK  161  A    between atoms: _438  and  _439
REMARK  162  A    between atoms: _439  and  _440
REMARK  163  A    between atoms: _440  and  _441
REMARK                            x       y       z     vdW  Elec       q    Type
REMARK                         _______ _______ _______ _____ _____    ______ ____
ROOT
ATOM      1  O   HOH     1      -6.103  15.115  11.967  0.00  0.00    +0.000 OA
ENDROOT
TORSDOF 0
REMARK  Name = ../refined-set-2016/3sap/3sap_pocket.pdb
REMARK  163 active torsions:
REMARK  status: ('A' for Active; 'I' for Inactive)
REMARK    1  A    between atoms: _1  and  _3
REMARK    2  A    between atoms: _3  and  _4
REMARK    3  A    between atoms: _3  and  _6
REMARK    4  A    between atoms: _6  and  _7
REMARK    5  A    between atoms: _17  and  _19
REMARK    6  A    between atoms: _19  and  _20
REMARK    7  A    between atoms: _19  and  _22
REMARK    8  A    between atoms: _22  and  _23
REMARK    9  A    between atoms: _28  and  _29
REMARK   10  A    between atoms: _31  and  _33
REMARK   11  A    between atoms: _33  and  _34
REMARK   12  A    between atoms: _33  and  _36
REMARK   13  A    between atoms: _36  and  _37
REMARK   14  A    between atoms: _43  and  _45
REMARK   15  A    between atoms: _45  and  _46
REMARK   16  A    between atoms: _45  and  _48
REMARK   17  A    between atoms: _48  and  _49
REMARK   18  A    between atoms: _52  and  _53
REMARK   19  A    between atoms: _58  and  _60
REMARK   20  A    between atoms: _60  and  _61
REMARK   21  A    between atoms: _60  and  _63
REMARK   22  A    between atoms: _63  and  _64
REMARK   23  A    between atoms: _69  and  _71
REMARK   24  A    between atoms: _71  and  _72
REMARK   25  A    between atoms: _75  and  _77
REMARK   26  A    between atoms: _77  and  _78
REMARK   27  A    between atoms: _77  and  _80
REMARK   28  A    between atoms: _80  and  _81
REMARK   29  A    between atoms: _86  and  _88
REMARK   30  A    between atoms: _88  and  _89
REMARK   31  A    between atoms: _88  and  _91
REMARK   32  A    between atoms: _91  and  _92
REMARK   33  A    between atoms: _95  and  _97
REMARK   34  A    between atoms: _97  and  _98
REMARK   35  A    between atoms: _97  and  _100
REMARK   36  A    between atoms: _100  and  _101
REMARK   37  A    between atoms: _101  and  _102
REMARK   38  A    between atoms: _107  and  _109
REMARK   39  A    between atoms: _109  and  _110
REMARK   40  A    between atoms: _109  and  _112
REMARK   41  A    between atoms: _112  and  _113
REMARK   42  A    between atoms: _119  and  _121
REMARK   43  A    between atoms: _132  and  _135
REMARK   44  A    between atoms: _135  and  _136
REMARK   45  A    between atoms: _144  and  _145
REMARK   46  A    between atoms: _153  and  _155
REMARK   47  A    between atoms: _155  and  _156
REMARK   48  A    between atoms: _155  and  _158
REMARK   49  A    between atoms: _158  and  _159
REMARK   50  A    between atoms: _159  and  _160
REMARK   51  A    between atoms: _163  and  _165
REMARK   52  A    between atoms: _165  and  _166
REMARK   53  A    between atoms: _165  and  _168
REMARK   54  A    between atoms: _168  and  _169
REMARK   55  A    between atoms: _174  and  _176
REMARK   56  A    between atoms: _176  and  _177
REMARK   57  A    between atoms: _176  and  _179
REMARK   58  A    between atoms: _179  and  _180
REMARK   59  A    between atoms: _180  and  _181
REMARK   60  A    between atoms: _184  and  _186
REMARK   61  A    between atoms: _186  and  _187
REMARK   62  A    between atoms: _186  and  _189
REMARK   63  A    between atoms: _189  and  _190
REMARK   64  A    between atoms: _193  and  _195
REMARK   65  A    between atoms: _195  and  _196
REMARK   66  A    between atoms: _195  and  _198
REMARK   67  A    between atoms: _198  and  _199
REMARK   68  A    between atoms: _200  and  ZN_450
REMARK   69  A    between atoms: _204  and  _206
REMARK   70  A    between atoms: _206  and  _207
REMARK   71  A    between atoms: _206  and  _209
REMARK   72  A    between atoms: _209  and  _210
REMARK   73  A    between atoms: _213  and  _215
REMARK   74  A    between atoms: _215  and  _216
REMARK   75  A    between atoms: _215  and  _218
REMARK   76  A    between atoms: _221  and  _223
REMARK   77  A    between atoms: _223  and  _224
REMARK   78  A    between atoms: _223  and  _226
REMARK   79  A    between atoms: _226  and  _227
REMARK   80  A    between atoms: _232  and  _234
REMARK   81  A    between atoms: _234  and  _235
REMARK   82  A    between atoms: _234  and  _237
REMARK   83  A    between atoms: _237  and  _238
REMARK   84  A    between atoms: _244  and  _246
REMARK   85  A    between atoms: _246  and  _247
REMARK   86  A    between atoms: _249  and  _251
REMARK   87  A    between atoms: _251  and  _252
REMARK   88  A    between atoms: _251  and  _254
REMARK   89  A    between atoms: _254  and  _255
REMARK   90  A    between atoms: _255  and  _256
REMARK   91  A    between atoms: _256  and  _257
REMARK   92  A    between atoms: _257  and  _258
REMARK   93  A    between atoms: _262  and  _264
REMARK   94  A    between atoms: _264  and  _265
REMARK   95  A    between atoms: _264  and  _267
REMARK   96  A    between atoms: _270  and  _272
REMARK   97  A    between atoms: _272  and  _273
REMARK   98  A    between atoms: _272  and  _275
REMARK   99  A    between atoms: _275  and  _276
REMARK  100  A    between atoms: _276  and  _277
REMARK  101  A    between atoms: _282  and  _284
REMARK  102  A    between atoms: _284  and  _285
REMARK  103  A    between atoms: _284  and  _287
REMARK  104  A    between atoms: _287  and  _288
REMARK  105  A    between atoms: _291  and  _293
REMARK  106  A    between atoms: _293  and  _294
REMARK  107  A    between atoms: _297  and  _299
REMARK  108  A    between atoms: _299  and  _300
REMARK  109  A    between atoms: _299  and  _302
REMARK  110  A    between atoms: _305  and  _307
REMARK  111  A    between atoms: _307  and  _308
REMARK  112  A    between atoms: _307  and  _310
REMARK  113  A    between atoms: _310  and  _311
REMARK  114  A    between atoms: _314  and  _316
REMARK  115  A    between atoms: _316  and  _317
REMARK  116  A    between atoms: _319  and  _321
REMARK  117  A    between atoms: _321  and  _322
REMARK  118  A    between atoms: _324  and  _326
REMARK  119  A    between atoms: _326  and  _327
REMARK  120  A    between atoms: _326  and  _329
REMARK  121  A    between atoms: _329  and  _330
REMARK  122  A    between atoms: _332  and  _334
REMARK  123  A    between atoms: _334  and  _335
REMARK  124  A    between atoms: _334  and  _337
REMARK  125  A    between atoms: _337  and  _338
REMARK  126  A    between atoms: _341  and  _343
REMARK  127  A    between atoms: _343  and  _344
REMARK  128  A    between atoms: _343  and  _346
REMARK  129  A    between atoms: _346  and  _347
REMARK  130  A    between atoms: _350  and  _352
REMARK  131  A    between atoms: _352  and  _353
REMARK  132  A    between atoms: _352  and  _355
REMARK  133  A    between atoms: _355  and  _356
REMARK  134  A    between atoms: _360  and  _361
REMARK  135  A    between atoms: _367  and  _368
REMARK  136  A    between atoms: _373  and  _375
REMARK  137  A    between atoms: _375  and  _376
REMARK  138  A    between atoms: _375  and  _378
REMARK  139  A    between atoms: _378  and  _379
REMARK  140  A    between atoms: _382  and  _384
REMARK  141  A    between atoms: _384  and  _385
REMARK  142  A    between atoms: _384  and  _387
REMARK  143  A    between atoms: _387  and  _388
REMARK  144  A    between atoms: _391  and  _393
REMARK  145  A    between atoms: _393  and  _394
REMARK  146  A    between atoms: _393  and  _396
REMARK  147  A    between atoms: _398  and  _400
REMARK  148  A    between atoms: _400  and  _401
REMARK  149  A    between atoms: _400  and  _403
REMARK  150  A    between atoms: _406  and  _408
REMARK  151  A    between atoms: _408  and  _409
REMARK  152  A    between atoms: _408  and  _411
REMARK  153  A    between atoms: _411  and  _412
REMARK  154  A    between atoms: _422  and  _424
REMARK  155  A    between atoms: _424  and  _425
REMARK  156  A    between atoms: _424  and  _427
REMARK  157  A    between atoms: _427  and  _428
REMARK  158  A    between atoms: _433  and  _435
REMARK  159  A    between atoms: _435  and  _436
REMARK  160  A    between atoms: _435  and  _438
REMARK  161  A    between atoms: _438  and  _439
REMARK  162  A    between atoms: _439  and  _440
REMARK  163  A    between atoms: _440  and  _441
REMARK                            x       y       z     vdW  Elec       q    Type
REMARK                         _______ _______ _______ _____ _____    ______ ____
ROOT
ATOM      1  O   HOH     1      -4.745   7.142   5.872  0.00  0.00    +0.000 OA
ENDROOT
TORSDOF 0
REMARK  Name = ../refined-set-2016/3sap/3sap_pocket.pdb
REMARK  163 active torsions:
REMARK  status: ('A' for Active; 'I' for Inactive)
REMARK    1  A    between atoms: _1  and  _3
REMARK    2  A    between atoms: _3  and  _4
REMARK    3  A    between atoms: _3  and  _6
REMARK    4  A    between atoms: _6  and  _7
REMARK    5  A    between atoms: _17  and  _19
REMARK    6  A    between atoms: _19  and  _20
REMARK    7  A    between atoms: _19  and  _22
REMARK    8  A    between atoms: _22  and  _23
REMARK    9  A    between atoms: _28  and  _29
REMARK   10  A    between atoms: _31  and  _33
REMARK   11  A    between atoms: _33  and  _34
REMARK   12  A    between atoms: _33  and  _36
REMARK   13  A    between atoms: _36  and  _37
REMARK   14  A    between atoms: _43  and  _45
REMARK   15  A    between atoms: _45  and  _46
REMARK   16  A    between atoms: _45  and  _48
REMARK   17  A    between atoms: _48  and  _49
REMARK   18  A    between atoms: _52  and  _53
REMARK   19  A    between atoms: _58  and  _60
REMARK   20  A    between atoms: _60  and  _61
REMARK   21  A    between atoms: _60  and  _63
REMARK   22  A    between atoms: _63  and  _64
REMARK   23  A    between atoms: _69  and  _71
REMARK   24  A    between atoms: _71  and  _72
REMARK   25  A    between atoms: _75  and  _77
REMARK   26  A    between atoms: _77  and  _78
REMARK   27  A    between atoms: _77  and  _80
REMARK   28  A    between atoms: _80  and  _81
REMARK   29  A    between atoms: _86  and  _88
REMARK   30  A    between atoms: _88  and  _89
REMARK   31  A    between atoms: _88  and  _91
REMARK   32  A    between atoms: _91  and  _92
REMARK   33  A    between atoms: _95  and  _97
REMARK   34  A    between atoms: _97  and  _98
REMARK   35  A    between atoms: _97  and  _100
REMARK   36  A    between atoms: _100  and  _101
REMARK   37  A    between atoms: _101  and  _102
REMARK   38  A    between atoms: _107  and  _109
REMARK   39  A    between atoms: _109  and  _110
REMARK   40  A    between atoms: _109  and  _112
REMARK   41  A    between atoms: _112  and  _113
REMARK   42  A    between atoms: _119  and  _121
REMARK   43  A    between atoms: _132  and  _135
REMARK   44  A    between atoms: _135  and  _136
REMARK   45  A    between atoms: _144  and  _145
REMARK   46  A    between atoms: _153  and  _155
REMARK   47  A    between atoms: _155  and  _156
REMARK   48  A    between atoms: _155  and  _158
REMARK   49  A    between atoms: _158  and  _159
REMARK   50  A    between atoms: _159  and  _160
REMARK   51  A    between atoms: _163  and  _165
REMARK   52  A    between atoms: _165  and  _166
REMARK   53  A    between atoms: _165  and  _168
REMARK   54  A    between atoms: _168  and  _169
REMARK   55  A    between atoms: _174  and  _176
REMARK   56  A    between atoms: _176  and  _177
REMARK   57  A    between atoms: _176  and  _179
REMARK   58  A    between atoms: _179  and  _180
REMARK   59  A    between atoms: _180  and  _181
REMARK   60  A    between atoms: _184  and  _186
REMARK   61  A    between atoms: _186  and  _187
REMARK   62  A    between atoms: _186  and  _189
REMARK   63  A    between atoms: _189  and  _190
REMARK   64  A    between atoms: _193  and  _195
REMARK   65  A    between atoms: _195  and  _196
REMARK   66  A    between atoms: _195  and  _198
REMARK   67  A    between atoms: _198  and  _199
REMARK   68  A    between atoms: _200  and  ZN_450
REMARK   69  A    between atoms: _204  and  _206
REMARK   70  A    between atoms: _206  and  _207
REMARK   71  A    between atoms: _206  and  _209
REMARK   72  A    between atoms: _209  and  _210
REMARK   73  A    between atoms: _213  and  _215
REMARK   74  A    between atoms: _215  and  _216
REMARK   75  A    between atoms: _215  and  _218
REMARK   76  A    between atoms: _221  and  _223
REMARK   77  A    between atoms: _223  and  _224
REMARK   78  A    between atoms: _223  and  _226
REMARK   79  A    between atoms: _226  and  _227
REMARK   80  A    between atoms: _232  and  _234
REMARK   81  A    between atoms: _234  and  _235
REMARK   82  A    between atoms: _234  and  _237
REMARK   83  A    between atoms: _237  and  _238
REMARK   84  A    between atoms: _244  and  _246
REMARK   85  A    between atoms: _246  and  _247
REMARK   86  A    between atoms: _249  and  _251
REMARK   87  A    between atoms: _251  and  _252
REMARK   88  A    between atoms: _251  and  _254
REMARK   89  A    between atoms: _254  and  _255
REMARK   90  A    between atoms: _255  and  _256
REMARK   91  A    between atoms: _256  and  _257
REMARK   92  A    between atoms: _257  and  _258
REMARK   93  A    between atoms: _262  and  _264
REMARK   94  A    between atoms: _264  and  _265
REMARK   95  A    between atoms: _264  and  _267
REMARK   96  A    between atoms: _270  and  _272
REMARK   97  A    between atoms: _272  and  _273
REMARK   98  A    between atoms: _272  and  _275
REMARK   99  A    between atoms: _275  and  _276
REMARK  100  A    between atoms: _276  and  _277
REMARK  101  A    between atoms: _282  and  _284
REMARK  102  A    between atoms: _284  and  _285
REMARK  103  A    between atoms: _284  and  _287
REMARK  104  A    between atoms: _287  and  _288
REMARK  105  A    between atoms: _291  and  _293
REMARK  106  A    between atoms: _293  and  _294
REMARK  107  A    between atoms: _297  and  _299
REMARK  108  A    between atoms: _299  and  _300
REMARK  109  A    between atoms: _299  and  _302
REMARK  110  A    between atoms: _305  and  _307
REMARK  111  A    between atoms: _307  and  _308
REMARK  112  A    between atoms: _307  and  _310
REMARK  113  A    between atoms: _310  and  _311
REMARK  114  A    between atoms: _314  and  _316
REMARK  115  A    between atoms: _316  and  _317
REMARK  116  A    between atoms: _319  and  _321
REMARK  117  A    between atoms: _321  and  _322
REMARK  118  A    between atoms: _324  and  _326
REMARK  119  A    between atoms: _326  and  _327
REMARK  120  A    between atoms: _326  and  _329
REMARK  121  A    between atoms: _329  and  _330
REMARK  122  A    between atoms: _332  and  _334
REMARK  123  A    between atoms: _334  and  _335
REMARK  124  A    between atoms: _334  and  _337
REMARK  125  A    between atoms: _337  and  _338
REMARK  126  A    between atoms: _341  and  _343
REMARK  127  A    between atoms: _343  and  _344
REMARK  128  A    between atoms: _343  and  _346
REMARK  129  A    between atoms: _346  and  _347
REMARK  130  A    between atoms: _350  and  _352
REMARK  131  A    between atoms: _352  and  _353
REMARK  132  A    between atoms: _352  and  _355
REMARK  133  A    between atoms: _355  and  _356
REMARK  134  A    between atoms: _360  and  _361
REMARK  135  A    between atoms: _367  and  _368
REMARK  136  A    between atoms: _373  and  _375
REMARK  137  A    between atoms: _375  and  _376
REMARK  138  A    between atoms: _375  and  _378
REMARK  139  A    between atoms: _378  and  _379
REMARK  140  A    between atoms: _382  and  _384
REMARK  141  A    between atoms: _384  and  _385
REMARK  142  A    between atoms: _384  and  _387
REMARK  143  A    between atoms: _387  and  _388
REMARK  144  A    between atoms: _391  and  _393
REMARK  145  A    between atoms: _393  and  _394
REMARK  146  A    between atoms: _393  and  _396
REMARK  147  A    between atoms: _398  and  _400
REMARK  148  A    between atoms: _400  and  _401
REMARK  149  A    between atoms: _400  and  _403
REMARK  150  A    between atoms: _406  and  _408
REMARK  151  A    between atoms: _408  and  _409
REMARK  152  A    between atoms: _408  and  _411
REMARK  153  A    between atoms: _411  and  _412
REMARK  154  A    between atoms: _422  and  _424
REMARK  155  A    between atoms: _424  and  _425
REMARK  156  A    between atoms: _424  and  _427
REMARK  157  A    between atoms: _427  and  _428
REMARK  158  A    between atoms: _433  and  _435
REMARK  159  A    between atoms: _435  and  _436
REMARK  160  A    between atoms: _435  and  _438
REMARK  161  A    between atoms: _438  and  _439
REMARK  162  A    between atoms: _439  and  _440
REMARK  163  A    between atoms: _440  and  _441
REMARK                            x       y       z     vdW  Elec       q    Type
REMARK                         _______ _______ _______ _____ _____    ______ ____
ROOT
ATOM      1  O   HOH     1      -3.910   0.435  13.625  0.00  0.00    +0.000 OA
ENDROOT
TORSDOF 0
REMARK  Name = ../refined-set-2016/3sap/3sap_pocket.pdb
REMARK  163 active torsions:
REMARK  status: ('A' for Active; 'I' for Inactive)
REMARK    1  A    between atoms: _1  and  _3
REMARK    2  A    between atoms: _3  and  _4
REMARK    3  A    between atoms: _3  and  _6
REMARK    4  A    between atoms: _6  and  _7
REMARK    5  A    between atoms: _17  and  _19
REMARK    6  A    between atoms: _19  and  _20
REMARK    7  A    between atoms: _19  and  _22
REMARK    8  A    between atoms: _22  and  _23
REMARK    9  A    between atoms: _28  and  _29
REMARK   10  A    between atoms: _31  and  _33
REMARK   11  A    between atoms: _33  and  _34
REMARK   12  A    between atoms: _33  and  _36
REMARK   13  A    between atoms: _36  and  _37
REMARK   14  A    between atoms: _43  and  _45
REMARK   15  A    between atoms: _45  and  _46
REMARK   16  A    between atoms: _45  and  _48
REMARK   17  A    between atoms: _48  and  _49
REMARK   18  A    between atoms: _52  and  _53
REMARK   19  A    between atoms: _58  and  _60
REMARK   20  A    between atoms: _60  and  _61
REMARK   21  A    between atoms: _60  and  _63
REMARK   22  A    between atoms: _63  and  _64
REMARK   23  A    between atoms: _69  and  _71
REMARK   24  A    between atoms: _71  and  _72
REMARK   25  A    between atoms: _75  and  _77
REMARK   26  A    between atoms: _77  and  _78
REMARK   27  A    between atoms: _77  and  _80
REMARK   28  A    between atoms: _80  and  _81
REMARK   29  A    between atoms: _86  and  _88
REMARK   30  A    between atoms: _88  and  _89
REMARK   31  A    between atoms: _88  and  _91
REMARK   32  A    between atoms: _91  and  _92
REMARK   33  A    between atoms: _95  and  _97
REMARK   34  A    between atoms: _97  and  _98
REMARK   35  A    between atoms: _97  and  _100
REMARK   36  A    between atoms: _100  and  _101
REMARK   37  A    between atoms: _101  and  _102
REMARK   38  A    between atoms: _107  and  _109
REMARK   39  A    between atoms: _109  and  _110
REMARK   40  A    between atoms: _109  and  _112
REMARK   41  A    between atoms: _112  and  _113
REMARK   42  A    between atoms: _119  and  _121
REMARK   43  A    between atoms: _132  and  _135
REMARK   44  A    between atoms: _135  and  _136
REMARK   45  A    between atoms: _144  and  _145
REMARK   46  A    between atoms: _153  and  _155
REMARK   47  A    between atoms: _155  and  _156
REMARK   48  A    between atoms: _155  and  _158
REMARK   49  A    between atoms: _158  and  _159
REMARK   50  A    between atoms: _159  and  _160
REMARK   51  A    between atoms: _163  and  _165
REMARK   52  A    between atoms: _165  and  _166
REMARK   53  A    between atoms: _165  and  _168
REMARK   54  A    between atoms: _168  and  _169
REMARK   55  A    between atoms: _174  and  _176
REMARK   56  A    between atoms: _176  and  _177
REMARK   57  A    between atoms: _176  and  _179
REMARK   58  A    between atoms: _179  and  _180
REMARK   59  A    between atoms: _180  and  _181
REMARK   60  A    between atoms: _184  and  _186
REMARK   61  A    between atoms: _186  and  _187
REMARK   62  A    between atoms: _186  and  _189
REMARK   63  A    between atoms: _189  and  _190
REMARK   64  A    between atoms: _193  and  _195
REMARK   65  A    between atoms: _195  and  _196
REMARK   66  A    between atoms: _195  and  _198
REMARK   67  A    between atoms: _198  and  _199
REMARK   68  A    between atoms: _200  and  ZN_450
REMARK   69  A    between atoms: _204  and  _206
REMARK   70  A    between atoms: _206  and  _207
REMARK   71  A    between atoms: _206  and  _209
REMARK   72  A    between atoms: _209  and  _210
REMARK   73  A    between atoms: _213  and  _215
REMARK   74  A    between atoms: _215  and  _216
REMARK   75  A    between atoms: _215  and  _218
REMARK   76  A    between atoms: _221  and  _223
REMARK   77  A    between atoms: _223  and  _224
REMARK   78  A    between atoms: _223  and  _226
REMARK   79  A    between atoms: _226  and  _227
REMARK   80  A    between atoms: _232  and  _234
REMARK   81  A    between atoms: _234  and  _235
REMARK   82  A    between atoms: _234  and  _237
REMARK   83  A    between atoms: _237  and  _238
REMARK   84  A    between atoms: _244  and  _246
REMARK   85  A    between atoms: _246  and  _247
REMARK   86  A    between atoms: _249  and  _251
REMARK   87  A    between atoms: _251  and  _252
REMARK   88  A    between atoms: _251  and  _254
REMARK   89  A    between atoms: _254  and  _255
REMARK   90  A    between atoms: _255  and  _256
REMARK   91  A    between atoms: _256  and  _257
REMARK   92  A    between atoms: _257  and  _258
REMARK   93  A    between atoms: _262  and  _264
REMARK   94  A    between atoms: _264  and  _265
REMARK   95  A    between atoms: _264  and  _267
REMARK   96  A    between atoms: _270  and  _272
REMARK   97  A    between atoms: _272  and  _273
REMARK   98  A    between atoms: _272  and  _275
REMARK   99  A    between atoms: _275  and  _276
REMARK  100  A    between atoms: _276  and  _277
REMARK  101  A    between atoms: _282  and  _284
REMARK  102  A    between atoms: _284  and  _285
REMARK  103  A    between atoms: _284  and  _287
REMARK  104  A    between atoms: _287  and  _288
REMARK  105  A    between atoms: _291  and  _293
REMARK  106  A    between atoms: _293  and  _294
REMARK  107  A    between atoms: _297  and  _299
REMARK  108  A    between atoms: _299  and  _300
REMARK  109  A    between atoms: _299  and  _302
REMARK  110  A    between atoms: _305  and  _307
REMARK  111  A    between atoms: _307  and  _308
REMARK  112  A    between atoms: _307  and  _310
REMARK  113  A    between atoms: _310  and  _311
REMARK  114  A    between atoms: _314  and  _316
REMARK  115  A    between atoms: _316  and  _317
REMARK  116  A    between atoms: _319  and  _321
REMARK  117  A    between atoms: _321  and  _322
REMARK  118  A    between atoms: _324  and  _326
REMARK  119  A    between atoms: _326  and  _327
REMARK  120  A    between atoms: _326  and  _329
REMARK  121  A    between atoms: _329  and  _330
REMARK  122  A    between atoms: _332  and  _334
REMARK  123  A    between atoms: _334  and  _335
REMARK  124  A    between atoms: _334  and  _337
REMARK  125  A    between atoms: _337  and  _338
REMARK  126  A    between atoms: _341  and  _343
REMARK  127  A    between atoms: _343  and  _344
REMARK  128  A    between atoms: _343  and  _346
REMARK  129  A    between atoms: _346  and  _347
REMARK  130  A    between atoms: _350  and  _352
REMARK  131  A    between atoms: _352  and  _353
REMARK  132  A    between atoms: _352  and  _355
REMARK  133  A    between atoms: _355  and  _356
REMARK  134  A    between atoms: _360  and  _361
REMARK  135  A    between atoms: _367  and  _368
REMARK  136  A    between atoms: _373  and  _375
REMARK  137  A    between atoms: _375  and  _376
REMARK  138  A    between atoms: _375  and  _378
REMARK  139  A    between atoms: _378  and  _379
REMARK  140  A    between atoms: _382  and  _384
REMARK  141  A    between atoms: _384  and  _385
REMARK  142  A    between atoms: _384  and  _387
REMARK  143  A    between atoms: _387  and  _388
REMARK  144  A    between atoms: _391  and  _393
REMARK  145  A    between atoms: _393  and  _394
REMARK  146  A    between atoms: _393  and  _396
REMARK  147  A    between atoms: _398  and  _400
REMARK  148  A    between atoms: _400  and  _401
REMARK  149  A    between atoms: _400  and  _403
REMARK  150  A    between atoms: _406  and  _408
REMARK  151  A    between atoms: _408  and  _409
REMARK  152  A    between atoms: _408  and  _411
REMARK  153  A    between atoms: _411  and  _412
REMARK  154  A    between atoms: _422  and  _424
REMARK  155  A    between atoms: _424  and  _425
REMARK  156  A    between atoms: _424  and  _427
REMARK  157  A    between atoms: _427  and  _428
REMARK  158  A    between atoms: _433  and  _435
REMARK  159  A    between atoms: _435  and  _436
REMARK  160  A    between atoms: _435  and  _438
REMARK  161  A    between atoms: _438  and  _439
REMARK  162  A    between atoms: _439  and  _440
REMARK  163  A    between atoms: _440  and  _441
REMARK                            x       y       z     vdW  Elec       q    Type
REMARK                         _______ _______ _______ _____ _____    ______ ____
ROOT
ATOM      1  O   HOH     1      -3.950  -0.996  11.519  0.00  0.00    +0.000 OA
ENDROOT
TORSDOF 0
REMARK  Name = ../refined-set-2016/3sap/3sap_pocket.pdb
REMARK  163 active torsions:
REMARK  status: ('A' for Active; 'I' for Inactive)
REMARK    1  A    between atoms: _1  and  _3
REMARK    2  A    between atoms: _3  and  _4
REMARK    3  A    between atoms: _3  and  _6
REMARK    4  A    between atoms: _6  and  _7
REMARK    5  A    between atoms: _17  and  _19
REMARK    6  A    between atoms: _19  and  _20
REMARK    7  A    between atoms: _19  and  _22
REMARK    8  A    between atoms: _22  and  _23
REMARK    9  A    between atoms: _28  and  _29
REMARK   10  A    between atoms: _31  and  _33
REMARK   11  A    between atoms: _33  and  _34
REMARK   12  A    between atoms: _33  and  _36
REMARK   13  A    between atoms: _36  and  _37
REMARK   14  A    between atoms: _43  and  _45
REMARK   15  A    between atoms: _45  and  _46
REMARK   16  A    between atoms: _45  and  _48
REMARK   17  A    between atoms: _48  and  _49
REMARK   18  A    between atoms: _52  and  _53
REMARK   19  A    between atoms: _58  and  _60
REMARK   20  A    between atoms: _60  and  _61
REMARK   21  A    between atoms: _60  and  _63
REMARK   22  A    between atoms: _63  and  _64
REMARK   23  A    between atoms: _69  and  _71
REMARK   24  A    between atoms: _71  and  _72
REMARK   25  A    between atoms: _75  and  _77
REMARK   26  A    between atoms: _77  and  _78
REMARK   27  A    between atoms: _77  and  _80
REMARK   28  A    between atoms: _80  and  _81
REMARK   29  A    between atoms: _86  and  _88
REMARK   30  A    between atoms: _88  and  _89
REMARK   31  A    between atoms: _88  and  _91
REMARK   32  A    between atoms: _91  and  _92
REMARK   33  A    between atoms: _95  and  _97
REMARK   34  A    between atoms: _97  and  _98
REMARK   35  A    between atoms: _97  and  _100
REMARK   36  A    between atoms: _100  and  _101
REMARK   37  A    between atoms: _101  and  _102
REMARK   38  A    between atoms: _107  and  _109
REMARK   39  A    between atoms: _109  and  _110
REMARK   40  A    between atoms: _109  and  _112
REMARK   41  A    between atoms: _112  and  _113
REMARK   42  A    between atoms: _119  and  _121
REMARK   43  A    between atoms: _132  and  _135
REMARK   44  A    between atoms: _135  and  _136
REMARK   45  A    between atoms: _144  and  _145
REMARK   46  A    between atoms: _153  and  _155
REMARK   47  A    between atoms: _155  and  _156
REMARK   48  A    between atoms: _155  and  _158
REMARK   49  A    between atoms: _158  and  _159
REMARK   50  A    between atoms: _159  and  _160
REMARK   51  A    between atoms: _163  and  _165
REMARK   52  A    between atoms: _165  and  _166
REMARK   53  A    between atoms: _165  and  _168
REMARK   54  A    between atoms: _168  and  _169
REMARK   55  A    between atoms: _174  and  _176
REMARK   56  A    between atoms: _176  and  _177
REMARK   57  A    between atoms: _176  and  _179
REMARK   58  A    between atoms: _179  and  _180
REMARK   59  A    between atoms: _180  and  _181
REMARK   60  A    between atoms: _184  and  _186
REMARK   61  A    between atoms: _186  and  _187
REMARK   62  A    between atoms: _186  and  _189
REMARK   63  A    between atoms: _189  and  _190
REMARK   64  A    between atoms: _193  and  _195
REMARK   65  A    between atoms: _195  and  _196
REMARK   66  A    between atoms: _195  and  _198
REMARK   67  A    between atoms: _198  and  _199
REMARK   68  A    between atoms: _200  and  ZN_450
REMARK   69  A    between atoms: _204  and  _206
REMARK   70  A    between atoms: _206  and  _207
REMARK   71  A    between atoms: _206  and  _209
REMARK   72  A    between atoms: _209  and  _210
REMARK   73  A    between atoms: _213  and  _215
REMARK   74  A    between atoms: _215  and  _216
REMARK   75  A    between atoms: _215  and  _218
REMARK   76  A    between atoms: _221  and  _223
REMARK   77  A    between atoms: _223  and  _224
REMARK   78  A    between atoms: _223  and  _226
REMARK   79  A    between atoms: _226  and  _227
REMARK   80  A    between atoms: _232  and  _234
REMARK   81  A    between atoms: _234  and  _235
REMARK   82  A    between atoms: _234  and  _237
REMARK   83  A    between atoms: _237  and  _238
REMARK   84  A    between atoms: _244  and  _246
REMARK   85  A    between atoms: _246  and  _247
REMARK   86  A    between atoms: _249  and  _251
REMARK   87  A    between atoms: _251  and  _252
REMARK   88  A    between atoms: _251  and  _254
REMARK   89  A    between atoms: _254  and  _255
REMARK   90  A    between atoms: _255  and  _256
REMARK   91  A    between atoms: _256  and  _257
REMARK   92  A    between atoms: _257  and  _258
REMARK   93  A    between atoms: _262  and  _264
REMARK   94  A    between atoms: _264  and  _265
REMARK   95  A    between atoms: _264  and  _267
REMARK   96  A    between atoms: _270  and  _272
REMARK   97  A    between atoms: _272  and  _273
REMARK   98  A    between atoms: _272  and  _275
REMARK   99  A    between atoms: _275  and  _276
REMARK  100  A    between atoms: _276  and  _277
REMARK  101  A    between atoms: _282  and  _284
REMARK  102  A    between atoms: _284  and  _285
REMARK  103  A    between atoms: _284  and  _287
REMARK  104  A    between atoms: _287  and  _288
REMARK  105  A    between atoms: _291  and  _293
REMARK  106  A    between atoms: _293  and  _294
REMARK  107  A    between atoms: _297  and  _299
REMARK  108  A    between atoms: _299  and  _300
REMARK  109  A    between atoms: _299  and  _302
REMARK  110  A    between atoms: _305  and  _307
REMARK  111  A    between atoms: _307  and  _308
REMARK  112  A    between atoms: _307  and  _310
REMARK  113  A    between atoms: _310  and  _311
REMARK  114  A    between atoms: _314  and  _316
REMARK  115  A    between atoms: _316  and  _317
REMARK  116  A    between atoms: _319  and  _321
REMARK  117  A    between atoms: _321  and  _322
REMARK  118  A    between atoms: _324  and  _326
REMARK  119  A    between atoms: _326  and  _327
REMARK  120  A    between atoms: _326  and  _329
REMARK  121  A    between atoms: _329  and  _330
REMARK  122  A    between atoms: _332  and  _334
REMARK  123  A    between atoms: _334  and  _335
REMARK  124  A    between atoms: _334  and  _337
REMARK  125  A    between atoms: _337  and  _338
REMARK  126  A    between atoms: _341  and  _343
REMARK  127  A    between atoms: _343  and  _344
REMARK  128  A    between atoms: _343  and  _346
REMARK  129  A    between atoms: _346  and  _347
REMARK  130  A    between atoms: _350  and  _352
REMARK  131  A    between atoms: _352  and  _353
REMARK  132  A    between atoms: _352  and  _355
REMARK  133  A    between atoms: _355  and  _356
REMARK  134  A    between atoms: _360  and  _361
REMARK  135  A    between atoms: _367  and  _368
REMARK  136  A    between atoms: _373  and  _375
REMARK  137  A    between atoms: _375  and  _376
REMARK  138  A    between atoms: _375  and  _378
REMARK  139  A    between atoms: _378  and  _379
REMARK  140  A    between atoms: _382  and  _384
REMARK  141  A    between atoms: _384  and  _385
REMARK  142  A    between atoms: _384  and  _387
REMARK  143  A    between atoms: _387  and  _388
REMARK  144  A    between atoms: _391  and  _393
REMARK  145  A    between atoms: _393  and  _394
REMARK  146  A    between atoms: _393  and  _396
REMARK  147  A    between atoms: _398  and  _400
REMARK  148  A    between atoms: _400  and  _401
REMARK  149  A    between atoms: _400  and  _403
REMARK  150  A    between atoms: _406  and  _408
REMARK  151  A    between atoms: _408  and  _409
REMARK  152  A    between atoms: _408  and  _411
REMARK  153  A    between atoms: _411  and  _412
REMARK  154  A    between atoms: _422  and  _424
REMARK  155  A    between atoms: _424  and  _425
REMARK  156  A    between atoms: _424  and  _427
REMARK  157  A    between atoms: _427  and  _428
REMARK  158  A    between atoms: _433  and  _435
REMARK  159  A    between atoms: _435  and  _436
REMARK  160  A    between atoms: _435  and  _438
REMARK  161  A    between atoms: _438  and  _439
REMARK  162  A    between atoms: _439  and  _440
REMARK  163  A    between atoms: _440  and  _441
REMARK                            x       y       z     vdW  Elec       q    Type
REMARK                         _______ _______ _______ _____ _____    ______ ____
ROOT
ATOM      1  O   HOH     1      -8.452   7.559   8.354  0.00  0.00    +0.000 OA
ENDROOT
TORSDOF 0
REMARK  Name = ../refined-set-2016/3sap/3sap_pocket.pdb
REMARK  163 active torsions:
REMARK  status: ('A' for Active; 'I' for Inactive)
REMARK    1  A    between atoms: _1  and  _3
REMARK    2  A    between atoms: _3  and  _4
REMARK    3  A    between atoms: _3  and  _6
REMARK    4  A    between atoms: _6  and  _7
REMARK    5  A    between atoms: _17  and  _19
REMARK    6  A    between atoms: _19  and  _20
REMARK    7  A    between atoms: _19  and  _22
REMARK    8  A    between atoms: _22  and  _23
REMARK    9  A    between atoms: _28  and  _29
REMARK   10  A    between atoms: _31  and  _33
REMARK   11  A    between atoms: _33  and  _34
REMARK   12  A    between atoms: _33  and  _36
REMARK   13  A    between atoms: _36  and  _37
REMARK   14  A    between atoms: _43  and  _45
REMARK   15  A    between atoms: _45  and  _46
REMARK   16  A    between atoms: _45  and  _48
REMARK   17  A    between atoms: _48  and  _49
REMARK   18  A    between atoms: _52  and  _53
REMARK   19  A    between atoms: _58  and  _60
REMARK   20  A    between atoms: _60  and  _61
REMARK   21  A    between atoms: _60  and  _63
REMARK   22  A    between atoms: _63  and  _64
REMARK   23  A    between atoms: _69  and  _71
REMARK   24  A    between atoms: _71  and  _72
REMARK   25  A    between atoms: _75  and  _77
REMARK   26  A    between atoms: _77  and  _78
REMARK   27  A    between atoms: _77  and  _80
REMARK   28  A    between atoms: _80  and  _81
REMARK   29  A    between atoms: _86  and  _88
REMARK   30  A    between atoms: _88  and  _89
REMARK   31  A    between atoms: _88  and  _91
REMARK   32  A    between atoms: _91  and  _92
REMARK   33  A    between atoms: _95  and  _97
REMARK   34  A    between atoms: _97  and  _98
REMARK   35  A    between atoms: _97  and  _100
REMARK   36  A    between atoms: _100  and  _101
REMARK   37  A    between atoms: _101  and  _102
REMARK   38  A    between atoms: _107  and  _109
REMARK   39  A    between atoms: _109  and  _110
REMARK   40  A    between atoms: _109  and  _112
REMARK   41  A    between atoms: _112  and  _113
REMARK   42  A    between atoms: _119  and  _121
REMARK   43  A    between atoms: _132  and  _135
REMARK   44  A    between atoms: _135  and  _136
REMARK   45  A    between atoms: _144  and  _145
REMARK   46  A    between atoms: _153  and  _155
REMARK   47  A    between atoms: _155  and  _156
REMARK   48  A    between atoms: _155  and  _158
REMARK   49  A    between atoms: _158  and  _159
REMARK   50  A    between atoms: _159  and  _160
REMARK   51  A    between atoms: _163  and  _165
REMARK   52  A    between atoms: _165  and  _166
REMARK   53  A    between atoms: _165  and  _168
REMARK   54  A    between atoms: _168  and  _169
REMARK   55  A    between atoms: _174  and  _176
REMARK   56  A    between atoms: _176  and  _177
REMARK   57  A    between atoms: _176  and  _179
REMARK   58  A    between atoms: _179  and  _180
REMARK   59  A    between atoms: _180  and  _181
REMARK   60  A    between atoms: _184  and  _186
REMARK   61  A    between atoms: _186  and  _187
REMARK   62  A    between atoms: _186  and  _189
REMARK   63  A    between atoms: _189  and  _190
REMARK   64  A    between atoms: _193  and  _195
REMARK   65  A    between atoms: _195  and  _196
REMARK   66  A    between atoms: _195  and  _198
REMARK   67  A    between atoms: _198  and  _199
REMARK   68  A    between atoms: _200  and  ZN_450
REMARK   69  A    between atoms: _204  and  _206
REMARK   70  A    between atoms: _206  and  _207
REMARK   71  A    between atoms: _206  and  _209
REMARK   72  A    between atoms: _209  and  _210
REMARK   73  A    between atoms: _213  and  _215
REMARK   74  A    between atoms: _215  and  _216
REMARK   75  A    between atoms: _215  and  _218
REMARK   76  A    between atoms: _221  and  _223
REMARK   77  A    between atoms: _223  and  _224
REMARK   78  A    between atoms: _223  and  _226
REMARK   79  A    between atoms: _226  and  _227
REMARK   80  A    between atoms: _232  and  _234
REMARK   81  A    between atoms: _234  and  _235
REMARK   82  A    between atoms: _234  and  _237
REMARK   83  A    between atoms: _237  and  _238
REMARK   84  A    between atoms: _244  and  _246
REMARK   85  A    between atoms: _246  and  _247
REMARK   86  A    between atoms: _249  and  _251
REMARK   87  A    between atoms: _251  and  _252
REMARK   88  A    between atoms: _251  and  _254
REMARK   89  A    between atoms: _254  and  _255
REMARK   90  A    between atoms: _255  and  _256
REMARK   91  A    between atoms: _256  and  _257
REMARK   92  A    between atoms: _257  and  _258
REMARK   93  A    between atoms: _262  and  _264
REMARK   94  A    between atoms: _264  and  _265
REMARK   95  A    between atoms: _264  and  _267
REMARK   96  A    between atoms: _270  and  _272
REMARK   97  A    between atoms: _272  and  _273
REMARK   98  A    between atoms: _272  and  _275
REMARK   99  A    between atoms: _275  and  _276
REMARK  100  A    between atoms: _276  and  _277
REMARK  101  A    between atoms: _282  and  _284
REMARK  102  A    between atoms: _284  and  _285
REMARK  103  A    between atoms: _284  and  _287
REMARK  104  A    between atoms: _287  and  _288
REMARK  105  A    between atoms: _291  and  _293
REMARK  106  A    between atoms: _293  and  _294
REMARK  107  A    between atoms: _297  and  _299
REMARK  108  A    between atoms: _299  and  _300
REMARK  109  A    between atoms: _299  and  _302
REMARK  110  A    between atoms: _305  and  _307
REMARK  111  A    between atoms: _307  and  _308
REMARK  112  A    between atoms: _307  and  _310
REMARK  113  A    between atoms: _310  and  _311
REMARK  114  A    between atoms: _314  and  _316
REMARK  115  A    between atoms: _316  and  _317
REMARK  116  A    between atoms: _319  and  _321
REMARK  117  A    between atoms: _321  and  _322
REMARK  118  A    between atoms: _324  and  _326
REMARK  119  A    between atoms: _326  and  _327
REMARK  120  A    between atoms: _326  and  _329
REMARK  121  A    between atoms: _329  and  _330
REMARK  122  A    between atoms: _332  and  _334
REMARK  123  A    between atoms: _334  and  _335
REMARK  124  A    between atoms: _334  and  _337
REMARK  125  A    between atoms: _337  and  _338
REMARK  126  A    between atoms: _341  and  _343
REMARK  127  A    between atoms: _343  and  _344
REMARK  128  A    between atoms: _343  and  _346
REMARK  129  A    between atoms: _346  and  _347
REMARK  130  A    between atoms: _350  and  _352
REMARK  131  A    between atoms: _352  and  _353
REMARK  132  A    between atoms: _352  and  _355
REMARK  133  A    between atoms: _355  and  _356
REMARK  134  A    between atoms: _360  and  _361
REMARK  135  A    between atoms: _367  and  _368
REMARK  136  A    between atoms: _373  and  _375
REMARK  137  A    between atoms: _375  and  _376
REMARK  138  A    between atoms: _375  and  _378
REMARK  139  A    between atoms: _378  and  _379
REMARK  140  A    between atoms: _382  and  _384
REMARK  141  A    between atoms: _384  and  _385
REMARK  142  A    between atoms: _384  and  _387
REMARK  143  A    between atoms: _387  and  _388
REMARK  144  A    between atoms: _391  and  _393
REMARK  145  A    between atoms: _393  and  _394
REMARK  146  A    between atoms: _393  and  _396
REMARK  147  A    between atoms: _398  and  _400
REMARK  148  A    between atoms: _400  and  _401
REMARK  149  A    between atoms: _400  and  _403
REMARK  150  A    between atoms: _406  and  _408
REMARK  151  A    between atoms: _408  and  _409
REMARK  152  A    between atoms: _408  and  _411
REMARK  153  A    between atoms: _411  and  _412
REMARK  154  A    between atoms: _422  and  _424
REMARK  155  A    between atoms: _424  and  _425
REMARK  156  A    between atoms: _424  and  _427
REMARK  157  A    between atoms: _427  and  _428
REMARK  158  A    between atoms: _433  and  _435
REMARK  159  A    between atoms: _435  and  _436
REMARK  160  A    between atoms: _435  and  _438
REMARK  161  A    between atoms: _438  and  _439
REMARK  162  A    between atoms: _439  and  _440
REMARK  163  A    between atoms: _440  and  _441
REMARK                            x       y       z     vdW  Elec       q    Type
REMARK                         _______ _______ _______ _____ _____    ______ ____
ROOT
ATOM      1  O   HOH     1      -5.701   8.584  10.661  0.00  0.00    +0.000 OA
ENDROOT
TORSDOF 0
