REMARK  Name = ../refined-set-2016/4qac/4qac_pocket.pdb
REMARK  222 active torsions:
REMARK  status: ('A' for Active; 'I' for Inactive)
REMARK    1  A    between atoms: _1  and  _3
REMARK    2  A    between atoms: _3  and  _4
REMARK    3  A    between atoms: _3  and  _6
REMARK    4  A    between atoms: _6  and  _7
REMARK    5  A    between atoms: _10  and  _12
REMARK    6  A    between atoms: _12  and  _13
REMARK    7  A    between atoms: _12  and  _15
REMARK    8  A    between atoms: _15  and  _16
REMARK    9  A    between atoms: _19  and  _21
REMARK   10  A    between atoms: _21  and  _22
REMARK   11  A    between atoms: _25  and  _27
REMARK   12  A    between atoms: _27  and  _28
REMARK   13  A    between atoms: _31  and  _33
REMARK   14  A    between atoms: _33  and  _34
REMARK   15  A    between atoms: _33  and  _36
REMARK   16  A    between atoms: _36  and  _37
REMARK   17  A    between atoms: _42  and  _43
REMARK   18  A    between atoms: _45  and  _47
REMARK   19  A    between atoms: _47  and  _48
REMARK   20  A    between atoms: _47  and  _50
REMARK   21  A    between atoms: _50  and  _51
REMARK   22  A    between atoms: _56  and  _58
REMARK   23  A    between atoms: _58  and  _59
REMARK   24  A    between atoms: _62  and  _64
REMARK   25  A    between atoms: _64  and  _65
REMARK   26  A    between atoms: _64  and  _67
REMARK   27  A    between atoms: _67  and  _68
REMARK   28  A    between atoms: _68  and  _69
REMARK   29  A    between atoms: _69  and  _70
REMARK   30  A    between atoms: _70  and  _71
REMARK   31  A    between atoms: _75  and  _77
REMARK   32  A    between atoms: _77  and  _78
REMARK   33  A    between atoms: _77  and  _80
REMARK   34  A    between atoms: _80  and  _81
REMARK   35  A    between atoms: _84  and  _86
REMARK   36  A    between atoms: _86  and  _87
REMARK   37  A    between atoms: _89  and  _91
REMARK   38  A    between atoms: _91  and  _92
REMARK   39  A    between atoms: _91  and  _94
REMARK   40  A    between atoms: _94  and  _95
REMARK   41  A    between atoms: _97  and  _99
REMARK   42  A    between atoms: _99  and  _100
REMARK   43  A    between atoms: _99  and  _102
REMARK   44  A    between atoms: _102  and  _103
REMARK   45  A    between atoms: _113  and  _115
REMARK   46  A    between atoms: _115  and  _116
REMARK   47  A    between atoms: _115  and  _118
REMARK   48  A    between atoms: _118  and  _119
REMARK   49  A    between atoms: _122  and  _124
REMARK   50  A    between atoms: _124  and  _125
REMARK   51  A    between atoms: _124  and  _127
REMARK   52  A    between atoms: _127  and  _128
REMARK   53  A    between atoms: _133  and  _135
REMARK   54  A    between atoms: _135  and  _136
REMARK   55  A    between atoms: _135  and  _138
REMARK   56  A    between atoms: _138  and  _139
REMARK   57  A    between atoms: _144  and  _146
REMARK   58  A    between atoms: _146  and  _147
REMARK   59  A    between atoms: _146  and  _149
REMARK   60  A    between atoms: _152  and  _154
REMARK   61  A    between atoms: _154  and  _155
REMARK   62  A    between atoms: _154  and  _157
REMARK   63  A    between atoms: _157  and  _158
REMARK   64  A    between atoms: _161  and  _163
REMARK   65  A    between atoms: _163  and  _164
REMARK   66  A    between atoms: _163  and  _166
REMARK   67  A    between atoms: _166  and  _167
REMARK   68  A    between atoms: _172  and  _173
REMARK   69  A    between atoms: _175  and  _177
REMARK   70  A    between atoms: _177  and  _178
REMARK   71  A    between atoms: _177  and  _180
REMARK   72  A    between atoms: _180  and  _181
REMARK   73  A    between atoms: _183  and  _185
REMARK   74  A    between atoms: _192  and  _193
REMARK   75  A    between atoms: _197  and  _199
REMARK   76  A    between atoms: _199  and  _200
REMARK   77  A    between atoms: _199  and  _202
REMARK   78  A    between atoms: _202  and  _203
REMARK   79  A    between atoms: _203  and  _204
REMARK   80  A    between atoms: _207  and  _209
REMARK   81  A    between atoms: _209  and  _210
REMARK   82  A    between atoms: _213  and  _215
REMARK   83  A    between atoms: _215  and  _216
REMARK   84  A    between atoms: _215  and  _218
REMARK   85  A    between atoms: _218  and  _219
REMARK   86  A    between atoms: _224  and  _225
REMARK   87  A    between atoms: _227  and  _229
REMARK   88  A    between atoms: _229  and  _230
REMARK   89  A    between atoms: _229  and  _232
REMARK   90  A    between atoms: _232  and  _233
REMARK   91  A    between atoms: _233  and  _234
REMARK   92  A    between atoms: _237  and  _239
REMARK   93  A    between atoms: _239  and  _240
REMARK   94  A    between atoms: _239  and  _242
REMARK   95  A    between atoms: _242  and  _243
REMARK   96  A    between atoms: _246  and  _248
REMARK   97  A    between atoms: _248  and  _249
REMARK   98  A    between atoms: _248  and  _251
REMARK   99  A    between atoms: _251  and  _252
REMARK  100  A    between atoms: _252  and  _253
REMARK  101  A    between atoms: _253  and  _254
REMARK  102  A    between atoms: _254  and  _255
REMARK  103  A    between atoms: _259  and  _261
REMARK  104  A    between atoms: _261  and  _262
REMARK  105  A    between atoms: _261  and  _264
REMARK  106  A    between atoms: _264  and  _265
REMARK  107  A    between atoms: _271  and  _273
REMARK  108  A    between atoms: _273  and  _274
REMARK  109  A    between atoms: _273  and  _276
REMARK  110  A    between atoms: _276  and  _277
REMARK  111  A    between atoms: _280  and  _282
REMARK  112  A    between atoms: _282  and  _283
REMARK  113  A    between atoms: _282  and  _285
REMARK  114  A    between atoms: _288  and  _290
REMARK  115  A    between atoms: _290  and  _291
REMARK  116  A    between atoms: _290  and  _293
REMARK  117  A    between atoms: _293  and  _294
REMARK  118  A    between atoms: _300  and  _302
REMARK  119  A    between atoms: _302  and  _303
REMARK  120  A    between atoms: _302  and  _305
REMARK  121  A    between atoms: _305  and  _306
REMARK  122  A    between atoms: _316  and  _318
REMARK  123  A    between atoms: _318  and  _319
REMARK  124  A    between atoms: _318  and  _321
REMARK  125  A    between atoms: _321  and  _322
REMARK  126  A    between atoms: _322  and  _323
REMARK  127  A    between atoms: _328  and  _330
REMARK  128  A    between atoms: _330  and  _331
REMARK  129  A    between atoms: _330  and  _333
REMARK  130  A    between atoms: _333  and  _334
REMARK  131  A    between atoms: _334  and  _335
REMARK  132  A    between atoms: _340  and  _342
REMARK  133  A    between atoms: _342  and  _343
REMARK  134  A    between atoms: _342  and  _345
REMARK  135  A    between atoms: _345  and  _346
REMARK  136  A    between atoms: _349  and  _351
REMARK  137  A    between atoms: _351  and  _352
REMARK  138  A    between atoms: _351  and  _354
REMARK  139  A    between atoms: _354  and  _355
REMARK  140  A    between atoms: _358  and  _360
REMARK  141  A    between atoms: _360  and  _361
REMARK  142  A    between atoms: _360  and  _363
REMARK  143  A    between atoms: _363  and  _364
REMARK  144  A    between atoms: _364  and  _365
REMARK  145  A    between atoms: _370  and  _372
REMARK  146  A    between atoms: _372  and  _373
REMARK  147  A    between atoms: _372  and  _375
REMARK  148  A    between atoms: _378  and  _380
REMARK  149  A    between atoms: _380  and  _381
REMARK  150  A    between atoms: _380  and  _383
REMARK  151  A    between atoms: _383  and  _384
REMARK  152  A    between atoms: _386  and  _388
REMARK  153  A    between atoms: _388  and  _389
REMARK  154  A    between atoms: _388  and  _391
REMARK  155  A    between atoms: _394  and  _396
REMARK  156  A    between atoms: _396  and  _397
REMARK  157  A    between atoms: _396  and  _399
REMARK  158  A    between atoms: _399  and  _400
REMARK  159  A    between atoms: _404  and  _405
REMARK  160  A    between atoms: _410  and  _412
REMARK  161  A    between atoms: _412  and  _413
REMARK  162  A    between atoms: _412  and  _415
REMARK  163  A    between atoms: _415  and  _416
REMARK  164  A    between atoms: _419  and  _421
REMARK  165  A    between atoms: _421  and  _422
REMARK  166  A    between atoms: _425  and  _427
REMARK  167  A    between atoms: _427  and  _428
REMARK  168  A    between atoms: _427  and  _430
REMARK  169  A    between atoms: _430  and  _431
REMARK  170  A    between atoms: _431  and  _432
REMARK  171  A    between atoms: _432  and  _433
REMARK  172  A    between atoms: _442  and  _444
REMARK  173  A    between atoms: _444  and  _445
REMARK  174  A    between atoms: _444  and  _447
REMARK  175  A    between atoms: _450  and  _452
REMARK  176  A    between atoms: _452  and  _453
REMARK  177  A    between atoms: _452  and  _455
REMARK  178  A    between atoms: _458  and  _460
REMARK  179  A    between atoms: _460  and  _461
REMARK  180  A    between atoms: _460  and  _463
REMARK  181  A    between atoms: _463  and  _464
REMARK  182  A    between atoms: _464  and  _465
REMARK  183  A    between atoms: _468  and  _470
REMARK  184  A    between atoms: _470  and  _471
REMARK  185  A    between atoms: _470  and  _473
REMARK  186  A    between atoms: _476  and  _478
REMARK  187  A    between atoms: _478  and  _479
REMARK  188  A    between atoms: _478  and  _481
REMARK  189  A    between atoms: _481  and  _482
REMARK  190  A    between atoms: _485  and  _487
REMARK  191  A    between atoms: _487  and  _488
REMARK  192  A    between atoms: _487  and  _490
REMARK  193  A    between atoms: _490  and  _491
REMARK  194  A    between atoms: _496  and  _497
REMARK  195  A    between atoms: _499  and  _501
REMARK  196  A    between atoms: _501  and  _502
REMARK  197  A    between atoms: _501  and  _504
REMARK  198  A    between atoms: _504  and  _505
REMARK  199  A    between atoms: _505  and  _506
REMARK  200  A    between atoms: _509  and  _510
REMARK  201  A    between atoms: _515  and  _517
REMARK  202  A    between atoms: _517  and  _518
REMARK  203  A    between atoms: _517  and  _520
REMARK  204  A    between atoms: _520  and  _521
REMARK  205  A    between atoms: _523  and  _525
REMARK  206  A    between atoms: _525  and  _526
REMARK  207  A    between atoms: _525  and  _528
REMARK  208  A    between atoms: _528  and  _529
REMARK  209  A    between atoms: _532  and  _534
REMARK  210  A    between atoms: _534  and  _535
REMARK  211  A    between atoms: _534  and  _537
REMARK  212  A    between atoms: _537  and  _538
REMARK  213  A    between atoms: _538  and  _539
REMARK  214  A    between atoms: _542  and  _544
REMARK  215  A    between atoms: _544  and  _545
REMARK  216  A    between atoms: _544  and  _547
REMARK  217  A    between atoms: _547  and  _548
REMARK  218  A    between atoms: _553  and  _554
REMARK  219  A    between atoms: _556  and  _558
REMARK  220  A    between atoms: _558  and  _559
REMARK  221  A    between atoms: _558  and  _561
REMARK  222  A    between atoms: _561  and  _562
REMARK                            x       y       z     vdW  Elec       q    Type
REMARK                         _______ _______ _______ _____ _____    ______ ____
ROOT
ATOM      1  C   ALA A   4     -45.451 -40.853  24.783  0.00  0.00    +0.241 C 
ATOM      2  O   ALA A   4     -45.100 -40.059  25.669  0.00  0.00    -0.273 OA
ATOM      3  N   TYR A   5     -45.232 -42.164  24.865  0.00  0.00    -0.297 N 
ATOM      4  H   TYR A   5     -45.409 -42.770  24.039  0.00  0.00    +0.150 HD
ENDROOT
BRANCH   1   5
ATOM      5  CA  ALA A   4     -46.207 -40.358  23.549  0.00  0.00    +0.149 C 
ATOM      6  CB  ALA A   4     -45.420 -39.295  22.804  0.00  0.00    +0.031 C 
BRANCH   5   8
ATOM      7  C   ALA A   3     -48.577 -40.563  24.019  0.00  0.00    +0.241 C 
ATOM      8  N   ALA A   4     -47.482 -39.821  24.006  0.00  0.00    -0.297 N 
ATOM      9  H   ALA A   4     -47.532 -38.834  24.329  0.00  0.00    +0.150 HD
ATOM     10  O   ALA A   3     -48.621 -41.691  23.522  0.00  0.00    -0.273 OA
BRANCH   7  11
ATOM     11  CA  ALA A   3     -49.818 -39.930  24.654  0.00  0.00    +0.149 C 
ATOM     12  CB  ALA A   3     -49.904 -40.272  26.132  0.00  0.00    +0.031 C 
BRANCH  11  15
ATOM     13  C   LEU A   2     -51.982 -39.600  23.567  0.00  0.00    +0.241 C 
ATOM     14  O   LEU A   2     -52.068 -38.429  23.940  0.00  0.00    -0.273 OA
ATOM     15  N   ALA A   3     -50.995 -40.406  23.939  0.00  0.00    -0.297 N 
ATOM     16  H   ALA A   3     -51.065 -41.418  23.711  0.00  0.00    +0.150 HD
BRANCH  13  17
ATOM     17  CA  LEU A   2     -53.054 -40.228  22.675  0.00  0.00    +0.149 C 
BRANCH  17  20
ATOM     18  C   ASP A   1     -55.012 -40.143  24.127  0.00  0.00    +0.239 C 
ATOM     19  O   ASP A   1     -54.487 -40.886  24.969  0.00  0.00    -0.274 OA
ATOM     20  N   LEU A   2     -54.387 -39.737  23.028  0.00  0.00    -0.297 N 
ATOM     21  H   LEU A   2     -54.857 -39.052  22.402  0.00  0.00    +0.150 HD
BRANCH  18  22
ATOM     22  CA  ASP A   1     -56.432 -39.606  24.328  0.00  0.00    +0.156 C 
BRANCH  22  23
ATOM     23  N   ASP A   1     -57.328 -39.994  23.237  0.00  0.00    -0.238 NA
ATOM     24  H   ASP A   1     -57.942 -40.824  23.362  0.00  0.00    +0.142 HD
ENDBRANCH  22  23
BRANCH  22  25
ATOM     25  CB  ASP A   1     -56.976 -40.065  25.691  0.00  0.00    +0.140 C 
BRANCH  25  26
ATOM     26  CG  ASP A   1     -57.140 -41.579  25.786  0.00  0.00    +0.367 C 
ATOM     27  OD2 ASP A   1     -56.940 -42.139  26.904  0.00  0.00    -0.246 OA
ATOM     28  OD1 ASP A   1     -57.465 -42.211  24.736  0.00  0.00    -0.246 OA
ENDBRANCH  25  26
ENDBRANCH  22  25
ENDBRANCH  18  22
ENDBRANCH  17  20
BRANCH  17  29
ATOM     29  CB  LEU A   2     -52.746 -39.976  21.185  0.00  0.00    +0.029 C 
BRANCH  29  30
ATOM     30  CG  LEU A   2     -53.653 -40.691  20.171  0.00  0.00    +0.002 C 
ATOM     31  CD2 LEU A   2     -53.589 -42.197  20.345  0.00  0.00    +0.000 C 
ATOM     32  CD1 LEU A   2     -53.315 -40.306  18.725  0.00  0.00    +0.000 C 
ENDBRANCH  29  30
ENDBRANCH  17  29
ENDBRANCH  13  17
ENDBRANCH  11  15
ENDBRANCH   7  11
ENDBRANCH   5   8
ENDBRANCH   1   5
BRANCH   3  33
ATOM     33  CA  TYR A   5     -44.741 -42.760  26.116  0.00  0.00    +0.153 C 
BRANCH  33  34
ATOM     34  C   TYR A   5     -43.371 -42.207  26.556  0.00  0.00    +0.241 C 
ATOM     35  O   TYR A   5     -43.114 -42.049  27.747  0.00  0.00    -0.273 OA
ATOM     36  N   ASN A   6     -42.493 -41.912  25.600  0.00  0.00    -0.297 N 
ATOM     37  H   ASN A   6     -42.756 -42.029  24.601  0.00  0.00    +0.150 HD
BRANCH  36  38
ATOM     38  CA  ASN A   6     -41.158 -41.423  25.952  0.00  0.00    +0.158 C 
BRANCH  38  39
ATOM     39  C   ASN A   6     -40.969 -39.920  25.751  0.00  0.00    +0.241 C 
ATOM     40  N   ALA A   7     -42.062 -39.163  25.782  0.00  0.00    -0.298 N 
ATOM     41  H   ALA A   7     -43.002 -39.606  25.816  0.00  0.00    +0.150 HD
ATOM     42  O   ASN A   6     -39.844 -39.447  25.581  0.00  0.00    -0.273 OA
BRANCH  40  43
ATOM     43  CA  ALA A   7     -41.938 -37.709  25.768  0.00  0.00    +0.137 C 
ATOM     44  CB  ALA A   7     -43.216 -37.039  25.239  0.00  0.00    +0.030 C 
BRANCH  43  45
ATOM     45  C   ALA A   7     -41.597 -37.233  27.178  0.00  0.00    +0.227 C 
ATOM     46  O   ALA A   7     -42.105 -37.769  28.168  0.00  0.00    -0.286 OA
ENDBRANCH  43  45
ENDBRANCH  40  43
ENDBRANCH  38  39
BRANCH  38  47
ATOM     47  CB  ASN A   6     -40.064 -42.201  25.218  0.00  0.00    +0.114 C 
BRANCH  47  48
ATOM     48  CG  ASN A   6     -40.260 -42.206  23.728  0.00  0.00    +0.222 C 
ATOM     49  OD1 ASN A   6     -41.391 -42.331  23.236  0.00  0.00    -0.275 OA
ATOM     50  ND2 ASN A   6     -39.166 -42.064  22.987  0.00  0.00    -0.329 N 
ATOM     51 HD21 ASN A   6     -38.238 -41.962  23.445  0.00  0.00    +0.145 HD
ATOM     52 HD22 ASN A   6     -39.238 -42.055  21.950  0.00  0.00    +0.145 HD
ENDBRANCH  47  48
ENDBRANCH  38  47
ENDBRANCH  36  38
ENDBRANCH  33  34
BRANCH  33  53
ATOM     53  CB  TYR A   5     -44.691 -44.298  26.028  0.00  0.00    +0.055 C 
BRANCH  53  54
ATOM     54  CG  TYR A   5     -45.967 -44.990  25.580  0.00  0.00    -0.020 A 
ATOM     55  CD2 TYR A   5     -47.226 -44.418  25.786  0.00  0.00    -0.001 A 
ATOM     56  CE2 TYR A   5     -48.390 -45.067  25.368  0.00  0.00    +0.036 A 
ATOM     57  CZ  TYR A   5     -48.295 -46.306  24.749  0.00  0.00    +0.134 A 
ATOM     58  CE1 TYR A   5     -47.063 -46.887  24.547  0.00  0.00    +0.036 A 
ATOM     59  CD1 TYR A   5     -45.912 -46.232  24.965  0.00  0.00    -0.001 A 
BRANCH  57  60
ATOM     60  OH  TYR A   5     -49.425 -46.982  24.333  0.00  0.00    -0.506 OA
ATOM     61  HH  TYR A   5     -49.478 -47.853  24.801  0.00  0.00    +0.292 HD
ENDBRANCH  57  60
ENDBRANCH  53  54
ENDBRANCH  33  53
ENDBRANCH   3  33
TORSDOF 23
REMARK  Name = ../refined-set-2016/4qac/4qac_pocket.pdb
REMARK  222 active torsions:
REMARK  status: ('A' for Active; 'I' for Inactive)
REMARK    1  A    between atoms: _1  and  _3
REMARK    2  A    between atoms: _3  and  _4
REMARK    3  A    between atoms: _3  and  _6
REMARK    4  A    between atoms: _6  and  _7
REMARK    5  A    between atoms: _10  and  _12
REMARK    6  A    between atoms: _12  and  _13
REMARK    7  A    between atoms: _12  and  _15
REMARK    8  A    between atoms: _15  and  _16
REMARK    9  A    between atoms: _19  and  _21
REMARK   10  A    between atoms: _21  and  _22
REMARK   11  A    between atoms: _25  and  _27
REMARK   12  A    between atoms: _27  and  _28
REMARK   13  A    between atoms: _31  and  _33
REMARK   14  A    between atoms: _33  and  _34
REMARK   15  A    between atoms: _33  and  _36
REMARK   16  A    between atoms: _36  and  _37
REMARK   17  A    between atoms: _42  and  _43
REMARK   18  A    between atoms: _45  and  _47
REMARK   19  A    between atoms: _47  and  _48
REMARK   20  A    between atoms: _47  and  _50
REMARK   21  A    between atoms: _50  and  _51
REMARK   22  A    between atoms: _56  and  _58
REMARK   23  A    between atoms: _58  and  _59
REMARK   24  A    between atoms: _62  and  _64
REMARK   25  A    between atoms: _64  and  _65
REMARK   26  A    between atoms: _64  and  _67
REMARK   27  A    between atoms: _67  and  _68
REMARK   28  A    between atoms: _68  and  _69
REMARK   29  A    between atoms: _69  and  _70
REMARK   30  A    between atoms: _70  and  _71
REMARK   31  A    between atoms: _75  and  _77
REMARK   32  A    between atoms: _77  and  _78
REMARK   33  A    between atoms: _77  and  _80
REMARK   34  A    between atoms: _80  and  _81
REMARK   35  A    between atoms: _84  and  _86
REMARK   36  A    between atoms: _86  and  _87
REMARK   37  A    between atoms: _89  and  _91
REMARK   38  A    between atoms: _91  and  _92
REMARK   39  A    between atoms: _91  and  _94
REMARK   40  A    between atoms: _94  and  _95
REMARK   41  A    between atoms: _97  and  _99
REMARK   42  A    between atoms: _99  and  _100
REMARK   43  A    between atoms: _99  and  _102
REMARK   44  A    between atoms: _102  and  _103
REMARK   45  A    between atoms: _113  and  _115
REMARK   46  A    between atoms: _115  and  _116
REMARK   47  A    between atoms: _115  and  _118
REMARK   48  A    between atoms: _118  and  _119
REMARK   49  A    between atoms: _122  and  _124
REMARK   50  A    between atoms: _124  and  _125
REMARK   51  A    between atoms: _124  and  _127
REMARK   52  A    between atoms: _127  and  _128
REMARK   53  A    between atoms: _133  and  _135
REMARK   54  A    between atoms: _135  and  _136
REMARK   55  A    between atoms: _135  and  _138
REMARK   56  A    between atoms: _138  and  _139
REMARK   57  A    between atoms: _144  and  _146
REMARK   58  A    between atoms: _146  and  _147
REMARK   59  A    between atoms: _146  and  _149
REMARK   60  A    between atoms: _152  and  _154
REMARK   61  A    between atoms: _154  and  _155
REMARK   62  A    between atoms: _154  and  _157
REMARK   63  A    between atoms: _157  and  _158
REMARK   64  A    between atoms: _161  and  _163
REMARK   65  A    between atoms: _163  and  _164
REMARK   66  A    between atoms: _163  and  _166
REMARK   67  A    between atoms: _166  and  _167
REMARK   68  A    between atoms: _172  and  _173
REMARK   69  A    between atoms: _175  and  _177
REMARK   70  A    between atoms: _177  and  _178
REMARK   71  A    between atoms: _177  and  _180
REMARK   72  A    between atoms: _180  and  _181
REMARK   73  A    between atoms: _183  and  _185
REMARK   74  A    between atoms: _192  and  _193
REMARK   75  A    between atoms: _197  and  _199
REMARK   76  A    between atoms: _199  and  _200
REMARK   77  A    between atoms: _199  and  _202
REMARK   78  A    between atoms: _202  and  _203
REMARK   79  A    between atoms: _203  and  _204
REMARK   80  A    between atoms: _207  and  _209
REMARK   81  A    between atoms: _209  and  _210
REMARK   82  A    between atoms: _213  and  _215
REMARK   83  A    between atoms: _215  and  _216
REMARK   84  A    between atoms: _215  and  _218
REMARK   85  A    between atoms: _218  and  _219
REMARK   86  A    between atoms: _224  and  _225
REMARK   87  A    between atoms: _227  and  _229
REMARK   88  A    between atoms: _229  and  _230
REMARK   89  A    between atoms: _229  and  _232
REMARK   90  A    between atoms: _232  and  _233
REMARK   91  A    between atoms: _233  and  _234
REMARK   92  A    between atoms: _237  and  _239
REMARK   93  A    between atoms: _239  and  _240
REMARK   94  A    between atoms: _239  and  _242
REMARK   95  A    between atoms: _242  and  _243
REMARK   96  A    between atoms: _246  and  _248
REMARK   97  A    between atoms: _248  and  _249
REMARK   98  A    between atoms: _248  and  _251
REMARK   99  A    between atoms: _251  and  _252
REMARK  100  A    between atoms: _252  and  _253
REMARK  101  A    between atoms: _253  and  _254
REMARK  102  A    between atoms: _254  and  _255
REMARK  103  A    between atoms: _259  and  _261
REMARK  104  A    between atoms: _261  and  _262
REMARK  105  A    between atoms: _261  and  _264
REMARK  106  A    between atoms: _264  and  _265
REMARK  107  A    between atoms: _271  and  _273
REMARK  108  A    between atoms: _273  and  _274
REMARK  109  A    between atoms: _273  and  _276
REMARK  110  A    between atoms: _276  and  _277
REMARK  111  A    between atoms: _280  and  _282
REMARK  112  A    between atoms: _282  and  _283
REMARK  113  A    between atoms: _282  and  _285
REMARK  114  A    between atoms: _288  and  _290
REMARK  115  A    between atoms: _290  and  _291
REMARK  116  A    between atoms: _290  and  _293
REMARK  117  A    between atoms: _293  and  _294
REMARK  118  A    between atoms: _300  and  _302
REMARK  119  A    between atoms: _302  and  _303
REMARK  120  A    between atoms: _302  and  _305
REMARK  121  A    between atoms: _305  and  _306
REMARK  122  A    between atoms: _316  and  _318
REMARK  123  A    between atoms: _318  and  _319
REMARK  124  A    between atoms: _318  and  _321
REMARK  125  A    between atoms: _321  and  _322
REMARK  126  A    between atoms: _322  and  _323
REMARK  127  A    between atoms: _328  and  _330
REMARK  128  A    between atoms: _330  and  _331
REMARK  129  A    between atoms: _330  and  _333
REMARK  130  A    between atoms: _333  and  _334
REMARK  131  A    between atoms: _334  and  _335
REMARK  132  A    between atoms: _340  and  _342
REMARK  133  A    between atoms: _342  and  _343
REMARK  134  A    between atoms: _342  and  _345
REMARK  135  A    between atoms: _345  and  _346
REMARK  136  A    between atoms: _349  and  _351
REMARK  137  A    between atoms: _351  and  _352
REMARK  138  A    between atoms: _351  and  _354
REMARK  139  A    between atoms: _354  and  _355
REMARK  140  A    between atoms: _358  and  _360
REMARK  141  A    between atoms: _360  and  _361
REMARK  142  A    between atoms: _360  and  _363
REMARK  143  A    between atoms: _363  and  _364
REMARK  144  A    between atoms: _364  and  _365
REMARK  145  A    between atoms: _370  and  _372
REMARK  146  A    between atoms: _372  and  _373
REMARK  147  A    between atoms: _372  and  _375
REMARK  148  A    between atoms: _378  and  _380
REMARK  149  A    between atoms: _380  and  _381
REMARK  150  A    between atoms: _380  and  _383
REMARK  151  A    between atoms: _383  and  _384
REMARK  152  A    between atoms: _386  and  _388
REMARK  153  A    between atoms: _388  and  _389
REMARK  154  A    between atoms: _388  and  _391
REMARK  155  A    between atoms: _394  and  _396
REMARK  156  A    between atoms: _396  and  _397
REMARK  157  A    between atoms: _396  and  _399
REMARK  158  A    between atoms: _399  and  _400
REMARK  159  A    between atoms: _404  and  _405
REMARK  160  A    between atoms: _410  and  _412
REMARK  161  A    between atoms: _412  and  _413
REMARK  162  A    between atoms: _412  and  _415
REMARK  163  A    between atoms: _415  and  _416
REMARK  164  A    between atoms: _419  and  _421
REMARK  165  A    between atoms: _421  and  _422
REMARK  166  A    between atoms: _425  and  _427
REMARK  167  A    between atoms: _427  and  _428
REMARK  168  A    between atoms: _427  and  _430
REMARK  169  A    between atoms: _430  and  _431
REMARK  170  A    between atoms: _431  and  _432
REMARK  171  A    between atoms: _432  and  _433
REMARK  172  A    between atoms: _442  and  _444
REMARK  173  A    between atoms: _444  and  _445
REMARK  174  A    between atoms: _444  and  _447
REMARK  175  A    between atoms: _450  and  _452
REMARK  176  A    between atoms: _452  and  _453
REMARK  177  A    between atoms: _452  and  _455
REMARK  178  A    between atoms: _458  and  _460
REMARK  179  A    between atoms: _460  and  _461
REMARK  180  A    between atoms: _460  and  _463
REMARK  181  A    between atoms: _463  and  _464
REMARK  182  A    between atoms: _464  and  _465
REMARK  183  A    between atoms: _468  and  _470
REMARK  184  A    between atoms: _470  and  _471
REMARK  185  A    between atoms: _470  and  _473
REMARK  186  A    between atoms: _476  and  _478
REMARK  187  A    between atoms: _478  and  _479
REMARK  188  A    between atoms: _478  and  _481
REMARK  189  A    between atoms: _481  and  _482
REMARK  190  A    between atoms: _485  and  _487
REMARK  191  A    between atoms: _487  and  _488
REMARK  192  A    between atoms: _487  and  _490
REMARK  193  A    between atoms: _490  and  _491
REMARK  194  A    between atoms: _496  and  _497
REMARK  195  A    between atoms: _499  and  _501
REMARK  196  A    between atoms: _501  and  _502
REMARK  197  A    between atoms: _501  and  _504
REMARK  198  A    between atoms: _504  and  _505
REMARK  199  A    between atoms: _505  and  _506
REMARK  200  A    between atoms: _509  and  _510
REMARK  201  A    between atoms: _515  and  _517
REMARK  202  A    between atoms: _517  and  _518
REMARK  203  A    between atoms: _517  and  _520
REMARK  204  A    between atoms: _520  and  _521
REMARK  205  A    between atoms: _523  and  _525
REMARK  206  A    between atoms: _525  and  _526
REMARK  207  A    between atoms: _525  and  _528
REMARK  208  A    between atoms: _528  and  _529
REMARK  209  A    between atoms: _532  and  _534
REMARK  210  A    between atoms: _534  and  _535
REMARK  211  A    between atoms: _534  and  _537
REMARK  212  A    between atoms: _537  and  _538
REMARK  213  A    between atoms: _538  and  _539
REMARK  214  A    between atoms: _542  and  _544
REMARK  215  A    between atoms: _544  and  _545
REMARK  216  A    between atoms: _544  and  _547
REMARK  217  A    between atoms: _547  and  _548
REMARK  218  A    between atoms: _553  and  _554
REMARK  219  A    between atoms: _556  and  _558
REMARK  220  A    between atoms: _558  and  _559
REMARK  221  A    between atoms: _558  and  _561
REMARK  222  A    between atoms: _561  and  _562
REMARK                            x       y       z     vdW  Elec       q    Type
REMARK                         _______ _______ _______ _____ _____    ______ ____
ROOT
ATOM      1  CA  TRP A   5     -53.518 -43.703  27.311  0.00  0.00    +0.153 C 
ENDROOT
BRANCH   1   2
ATOM      2  C   TRP A   5     -54.478 -44.579  28.097  0.00  0.00    +0.241 C 
ATOM      3  O   TRP A   5     -54.045 -45.470  28.827  0.00  0.00    -0.273 OA
ATOM      4  N   THR A   6     -55.780 -44.332  27.965  0.00  0.00    -0.295 N 
ATOM      5  H   THR A   6     -56.118 -43.662  27.245  0.00  0.00    +0.150 HD
BRANCH   4   6
ATOM      6  CA  THR A   6     -56.731 -45.015  28.847  0.00  0.00    +0.176 C 
BRANCH   6   7
ATOM      7  C   THR A   6     -57.612 -46.038  28.150  0.00  0.00    +0.243 C 
ATOM      8  O   THR A   6     -58.340 -46.787  28.800  0.00  0.00    -0.273 OA
ATOM      9  N   HIS A   7     -57.562 -46.063  26.828  0.00  0.00    -0.297 N 
ATOM     10  H   HIS A   7     -56.961 -45.386  26.317  0.00  0.00    +0.150 HD
BRANCH   9  11
ATOM     11  CA  HIS A   7     -58.352 -47.042  26.089  0.00  0.00    +0.155 C 
BRANCH  11  12
ATOM     12  C   HIS A   7     -57.465 -48.131  25.502  0.00  0.00    +0.241 C 
ATOM     13  N   HIS A   8     -57.700 -49.356  25.957  0.00  0.00    -0.298 N 
ATOM     14  H   HIS A   8     -58.413 -49.479  26.705  0.00  0.00    +0.150 HD
ATOM     15  O   HIS A   7     -56.594 -47.868  24.671  0.00  0.00    -0.273 OA
BRANCH  13  16
ATOM     16  CA  HIS A   8     -57.005 -50.538  25.457  0.00  0.00    +0.143 C 
BRANCH  16  17
ATOM     17  C   HIS A   8     -57.592 -50.972  24.117  0.00  0.00    +0.227 C 
ATOM     18  O   HIS A   8     -58.524 -50.343  23.610  0.00  0.00    -0.286 OA
ENDBRANCH  16  17
BRANCH  16  19
ATOM     19  CB  HIS A   8     -57.124 -51.660  26.485  0.00  0.00    +0.075 C 
BRANCH  19  20
ATOM     20  CG  HIS A   8     -58.526 -51.942  26.899  0.00  0.00    +0.082 A 
ATOM     21  CD2 HIS A   8     -59.217 -51.616  28.014  0.00  0.00    +0.115 A 
ATOM     22  NE2 HIS A   8     -60.481 -52.133  27.886  0.00  0.00    -0.221 NA
ATOM     23  CE1 HIS A   8     -60.566 -52.753  26.717  0.00  0.00    +0.199 A 
ATOM     24  ND1 HIS A   8     -59.412 -52.652  26.099  0.00  0.00    -0.227 NA
ENDBRANCH  19  20
ENDBRANCH  16  19
ENDBRANCH  13  16
ENDBRANCH  11  12
BRANCH  11  25
ATOM     25  CB  HIS A   7     -59.214 -46.385  24.999  0.00  0.00    +0.076 C 
BRANCH  25  26
ATOM     26  CG  HIS A   7     -60.158 -45.357  25.526  0.00  0.00    +0.082 A 
ATOM     27  CD2 HIS A   7     -61.393 -45.474  26.078  0.00  0.00    +0.115 A 
ATOM     28  NE2 HIS A   7     -61.811 -44.210  26.408  0.00  0.00    -0.221 NA
ATOM     29  CE1 HIS A   7     -60.869 -43.345  26.080  0.00  0.00    +0.199 A 
ATOM     30  ND1 HIS A   7     -59.861 -44.009  25.548  0.00  0.00    -0.227 NA
ENDBRANCH  25  26
ENDBRANCH  11  25
ENDBRANCH   9  11
ENDBRANCH   6   7
BRANCH   6  31
ATOM     31  CB  THR A   6     -57.617 -44.029  29.662  0.00  0.00    +0.137 C 
ATOM     32  CG2 THR A   6     -56.744 -43.064  30.479  0.00  0.00    +0.034 C 
BRANCH  31  33
ATOM     33  OG1 THR A   6     -58.498 -43.312  28.778  0.00  0.00    -0.382 OA
ATOM     34  HG1 THR A   6     -57.961 -42.801  28.122  0.00  0.00    +0.210 HD
ENDBRANCH  31  33
ENDBRANCH   6  31
ENDBRANCH   4   6
ENDBRANCH   1   2
BRANCH   1  36
ATOM     35  C   SER A   4     -53.755 -44.569  25.077  0.00  0.00    +0.243 C 
ATOM     36  N   TRP A   5     -53.922 -43.553  25.920  0.00  0.00    -0.297 N 
ATOM     37  H   TRP A   5     -54.338 -42.659  25.588  0.00  0.00    +0.150 HD
ATOM     38  O   SER A   4     -53.280 -45.650  25.439  0.00  0.00    -0.273 OA
BRANCH  35  39
ATOM     39  CA  SER A   4     -54.181 -44.354  23.621  0.00  0.00    +0.178 C 
BRANCH  39  42
ATOM     40  C   GLY A   3     -51.914 -44.262  22.770  0.00  0.00    +0.243 C 
ATOM     41  O   GLY A   3     -51.658 -43.281  23.463  0.00  0.00    -0.273 OA
ATOM     42  N   SER A   4     -53.129 -44.805  22.715  0.00  0.00    -0.295 N 
ATOM     43  H   SER A   4     -53.329 -45.555  22.023  0.00  0.00    +0.150 HD
BRANCH  40  44
ATOM     44  CA  GLY A   3     -50.834 -44.903  21.930  0.00  0.00    +0.176 C 
BRANCH  44  46
ATOM     45  C   ILE A   2     -48.902 -44.082  20.704  0.00  0.00    +0.241 C 
ATOM     46  N   GLY A   3     -49.667 -44.048  21.792  0.00  0.00    -0.295 N 
ATOM     47  H   GLY A   3     -49.424 -43.393  22.563  0.00  0.00    +0.150 HD
ATOM     48  O   ILE A   2     -49.102 -44.857  19.772  0.00  0.00    -0.273 OA
BRANCH  45  49
ATOM     49  CA  ILE A   2     -47.718 -43.124  20.660  0.00  0.00    +0.148 C 
BRANCH  49  52
ATOM     50  C   LYS A   1     -45.410 -43.760  21.088  0.00  0.00    +0.238 C 
ATOM     51  O   LYS A   1     -45.332 -43.015  22.056  0.00  0.00    -0.274 OA
ATOM     52  N   ILE A   2     -46.515 -43.887  20.364  0.00  0.00    -0.297 N 
ATOM     53  H   ILE A   2     -46.521 -44.550  19.563  0.00  0.00    +0.150 HD
BRANCH  50  54
ATOM     54  CA  LYS A   1     -44.213 -44.593  20.643  0.00  0.00    +0.145 C 
BRANCH  54  55
ATOM     55  N   LYS A   1     -43.008 -43.771  20.583  0.00  0.00    -0.238 NA
ATOM     56  H   LYS A   1     -42.587 -43.419  21.466  0.00  0.00    +0.142 HD
ENDBRANCH  54  55
BRANCH  54  57
ATOM     57  CB  LYS A   1     -44.010 -45.785  21.588  0.00  0.00    +0.026 C 
BRANCH  57  58
ATOM     58  CG  LYS A   1     -42.925 -46.750  21.115  0.00  0.00    -0.000 C 
BRANCH  58  59
ATOM     59  CD  LYS A   1     -42.249 -47.467  22.281  0.00  0.00    -0.024 C 
BRANCH  59  60
ATOM     60  CE  LYS A   1     -42.169 -48.968  22.024  0.00  0.00    -0.086 C 
BRANCH  60  61
ATOM     61  NZ  LYS A   1     -43.522 -49.537  21.725  0.00  0.00    +0.380 N 
ATOM     62  HZ1 LYS A   1     -44.153 -49.371  22.535  0.00  0.00    -0.089 HD
ATOM     63  HZ2 LYS A   1     -43.437 -50.559  21.554  0.00  0.00    -0.089 HD
ATOM     64  HZ3 LYS A   1     -43.912 -49.074  20.879  0.00  0.00    -0.089 HD
ENDBRANCH  60  61
ENDBRANCH  59  60
ENDBRANCH  58  59
ENDBRANCH  57  58
ENDBRANCH  54  57
ENDBRANCH  50  54
ENDBRANCH  49  52
BRANCH  49  65
ATOM     65  CB  ILE A   2     -47.947 -42.042  19.579  0.00  0.00    +0.027 C 
ATOM     66  CG2 ILE A   2     -49.320 -41.404  19.740  0.00  0.00    +0.002 C 
BRANCH  65  67
ATOM     67  CG1 ILE A   2     -46.854 -40.973  19.672  0.00  0.00    +0.002 C 
ATOM     68  CD1 ILE A   2     -46.747 -40.095  18.455  0.00  0.00    +0.000 C 
ENDBRANCH  65  67
ENDBRANCH  49  65
ENDBRANCH  45  49
ENDBRANCH  44  46
ENDBRANCH  40  44
ENDBRANCH  39  42
BRANCH  39  69
ATOM     69  CB  SER A   4     -55.492 -45.090  23.352  0.00  0.00    +0.166 C 
BRANCH  69  70
ATOM     70  OG  SER A   4     -56.428 -44.750  24.365  0.00  0.00    -0.380 OA
ATOM     71  H   SER A   4     -56.584 -43.772  24.354  0.00  0.00    +0.211 HD
ENDBRANCH  69  70
ENDBRANCH  39  69
ENDBRANCH  35  39
ENDBRANCH   1  36
BRANCH   1  72
ATOM     72  CB  TRP A   5     -53.342 -42.345  28.013  0.00  0.00    +0.057 C 
BRANCH  72  73
ATOM     73  CG  TRP A   5     -52.563 -42.420  29.343  0.00  0.00    -0.002 A 
ATOM     74  CD1 TRP A   5     -53.008 -42.044  30.585  0.00  0.00    +0.068 A 
ATOM     75  NE1 TRP A   5     -52.019 -42.242  31.532  0.00  0.00    -0.352 N 
ATOM     76  HE1 TRP A   5     -52.105 -42.038  32.548  0.00  0.00    +0.166 HD
ATOM     77  CE2 TRP A   5     -50.909 -42.750  30.913  0.00  0.00    +0.056 A 
ATOM     78  CZ2 TRP A   5     -49.670 -43.118  31.446  0.00  0.00    +0.017 A 
ATOM     79  CH2 TRP A   5     -48.731 -43.606  30.579  0.00  0.00    +0.001 A 
ATOM     80  CZ3 TRP A   5     -48.998 -43.741  29.210  0.00  0.00    +0.000 A 
ATOM     81  CE3 TRP A   5     -50.232 -43.391  28.678  0.00  0.00    +0.001 A 
ATOM     82  CD2 TRP A   5     -51.212 -42.883  29.534  0.00  0.00    +0.013 A 
ENDBRANCH  72  73
ENDBRANCH   1  72
TORSDOF 33
REMARK  Name = ../refined-set-2016/4qac/4qac_pocket.pdb
REMARK  222 active torsions:
REMARK  status: ('A' for Active; 'I' for Inactive)
REMARK    1  A    between atoms: _1  and  _3
REMARK    2  A    between atoms: _3  and  _4
REMARK    3  A    between atoms: _3  and  _6
REMARK    4  A    between atoms: _6  and  _7
REMARK    5  A    between atoms: _10  and  _12
REMARK    6  A    between atoms: _12  and  _13
REMARK    7  A    between atoms: _12  and  _15
REMARK    8  A    between atoms: _15  and  _16
REMARK    9  A    between atoms: _19  and  _21
REMARK   10  A    between atoms: _21  and  _22
REMARK   11  A    between atoms: _25  and  _27
REMARK   12  A    between atoms: _27  and  _28
REMARK   13  A    between atoms: _31  and  _33
REMARK   14  A    between atoms: _33  and  _34
REMARK   15  A    between atoms: _33  and  _36
REMARK   16  A    between atoms: _36  and  _37
REMARK   17  A    between atoms: _42  and  _43
REMARK   18  A    between atoms: _45  and  _47
REMARK   19  A    between atoms: _47  and  _48
REMARK   20  A    between atoms: _47  and  _50
REMARK   21  A    between atoms: _50  and  _51
REMARK   22  A    between atoms: _56  and  _58
REMARK   23  A    between atoms: _58  and  _59
REMARK   24  A    between atoms: _62  and  _64
REMARK   25  A    between atoms: _64  and  _65
REMARK   26  A    between atoms: _64  and  _67
REMARK   27  A    between atoms: _67  and  _68
REMARK   28  A    between atoms: _68  and  _69
REMARK   29  A    between atoms: _69  and  _70
REMARK   30  A    between atoms: _70  and  _71
REMARK   31  A    between atoms: _75  and  _77
REMARK   32  A    between atoms: _77  and  _78
REMARK   33  A    between atoms: _77  and  _80
REMARK   34  A    between atoms: _80  and  _81
REMARK   35  A    between atoms: _84  and  _86
REMARK   36  A    between atoms: _86  and  _87
REMARK   37  A    between atoms: _89  and  _91
REMARK   38  A    between atoms: _91  and  _92
REMARK   39  A    between atoms: _91  and  _94
REMARK   40  A    between atoms: _94  and  _95
REMARK   41  A    between atoms: _97  and  _99
REMARK   42  A    between atoms: _99  and  _100
REMARK   43  A    between atoms: _99  and  _102
REMARK   44  A    between atoms: _102  and  _103
REMARK   45  A    between atoms: _113  and  _115
REMARK   46  A    between atoms: _115  and  _116
REMARK   47  A    between atoms: _115  and  _118
REMARK   48  A    between atoms: _118  and  _119
REMARK   49  A    between atoms: _122  and  _124
REMARK   50  A    between atoms: _124  and  _125
REMARK   51  A    between atoms: _124  and  _127
REMARK   52  A    between atoms: _127  and  _128
REMARK   53  A    between atoms: _133  and  _135
REMARK   54  A    between atoms: _135  and  _136
REMARK   55  A    between atoms: _135  and  _138
REMARK   56  A    between atoms: _138  and  _139
REMARK   57  A    between atoms: _144  and  _146
REMARK   58  A    between atoms: _146  and  _147
REMARK   59  A    between atoms: _146  and  _149
REMARK   60  A    between atoms: _152  and  _154
REMARK   61  A    between atoms: _154  and  _155
REMARK   62  A    between atoms: _154  and  _157
REMARK   63  A    between atoms: _157  and  _158
REMARK   64  A    between atoms: _161  and  _163
REMARK   65  A    between atoms: _163  and  _164
REMARK   66  A    between atoms: _163  and  _166
REMARK   67  A    between atoms: _166  and  _167
REMARK   68  A    between atoms: _172  and  _173
REMARK   69  A    between atoms: _175  and  _177
REMARK   70  A    between atoms: _177  and  _178
REMARK   71  A    between atoms: _177  and  _180
REMARK   72  A    between atoms: _180  and  _181
REMARK   73  A    between atoms: _183  and  _185
REMARK   74  A    between atoms: _192  and  _193
REMARK   75  A    between atoms: _197  and  _199
REMARK   76  A    between atoms: _199  and  _200
REMARK   77  A    between atoms: _199  and  _202
REMARK   78  A    between atoms: _202  and  _203
REMARK   79  A    between atoms: _203  and  _204
REMARK   80  A    between atoms: _207  and  _209
REMARK   81  A    between atoms: _209  and  _210
REMARK   82  A    between atoms: _213  and  _215
REMARK   83  A    between atoms: _215  and  _216
REMARK   84  A    between atoms: _215  and  _218
REMARK   85  A    between atoms: _218  and  _219
REMARK   86  A    between atoms: _224  and  _225
REMARK   87  A    between atoms: _227  and  _229
REMARK   88  A    between atoms: _229  and  _230
REMARK   89  A    between atoms: _229  and  _232
REMARK   90  A    between atoms: _232  and  _233
REMARK   91  A    between atoms: _233  and  _234
REMARK   92  A    between atoms: _237  and  _239
REMARK   93  A    between atoms: _239  and  _240
REMARK   94  A    between atoms: _239  and  _242
REMARK   95  A    between atoms: _242  and  _243
REMARK   96  A    between atoms: _246  and  _248
REMARK   97  A    between atoms: _248  and  _249
REMARK   98  A    between atoms: _248  and  _251
REMARK   99  A    between atoms: _251  and  _252
REMARK  100  A    between atoms: _252  and  _253
REMARK  101  A    between atoms: _253  and  _254
REMARK  102  A    between atoms: _254  and  _255
REMARK  103  A    between atoms: _259  and  _261
REMARK  104  A    between atoms: _261  and  _262
REMARK  105  A    between atoms: _261  and  _264
REMARK  106  A    between atoms: _264  and  _265
REMARK  107  A    between atoms: _271  and  _273
REMARK  108  A    between atoms: _273  and  _274
REMARK  109  A    between atoms: _273  and  _276
REMARK  110  A    between atoms: _276  and  _277
REMARK  111  A    between atoms: _280  and  _282
REMARK  112  A    between atoms: _282  and  _283
REMARK  113  A    between atoms: _282  and  _285
REMARK  114  A    between atoms: _288  and  _290
REMARK  115  A    between atoms: _290  and  _291
REMARK  116  A    between atoms: _290  and  _293
REMARK  117  A    between atoms: _293  and  _294
REMARK  118  A    between atoms: _300  and  _302
REMARK  119  A    between atoms: _302  and  _303
REMARK  120  A    between atoms: _302  and  _305
REMARK  121  A    between atoms: _305  and  _306
REMARK  122  A    between atoms: _316  and  _318
REMARK  123  A    between atoms: _318  and  _319
REMARK  124  A    between atoms: _318  and  _321
REMARK  125  A    between atoms: _321  and  _322
REMARK  126  A    between atoms: _322  and  _323
REMARK  127  A    between atoms: _328  and  _330
REMARK  128  A    between atoms: _330  and  _331
REMARK  129  A    between atoms: _330  and  _333
REMARK  130  A    between atoms: _333  and  _334
REMARK  131  A    between atoms: _334  and  _335
REMARK  132  A    between atoms: _340  and  _342
REMARK  133  A    between atoms: _342  and  _343
REMARK  134  A    between atoms: _342  and  _345
REMARK  135  A    between atoms: _345  and  _346
REMARK  136  A    between atoms: _349  and  _351
REMARK  137  A    between atoms: _351  and  _352
REMARK  138  A    between atoms: _351  and  _354
REMARK  139  A    between atoms: _354  and  _355
REMARK  140  A    between atoms: _358  and  _360
REMARK  141  A    between atoms: _360  and  _361
REMARK  142  A    between atoms: _360  and  _363
REMARK  143  A    between atoms: _363  and  _364
REMARK  144  A    between atoms: _364  and  _365
REMARK  145  A    between atoms: _370  and  _372
REMARK  146  A    between atoms: _372  and  _373
REMARK  147  A    between atoms: _372  and  _375
REMARK  148  A    between atoms: _378  and  _380
REMARK  149  A    between atoms: _380  and  _381
REMARK  150  A    between atoms: _380  and  _383
REMARK  151  A    between atoms: _383  and  _384
REMARK  152  A    between atoms: _386  and  _388
REMARK  153  A    between atoms: _388  and  _389
REMARK  154  A    between atoms: _388  and  _391
REMARK  155  A    between atoms: _394  and  _396
REMARK  156  A    between atoms: _396  and  _397
REMARK  157  A    between atoms: _396  and  _399
REMARK  158  A    between atoms: _399  and  _400
REMARK  159  A    between atoms: _404  and  _405
REMARK  160  A    between atoms: _410  and  _412
REMARK  161  A    between atoms: _412  and  _413
REMARK  162  A    between atoms: _412  and  _415
REMARK  163  A    between atoms: _415  and  _416
REMARK  164  A    between atoms: _419  and  _421
REMARK  165  A    between atoms: _421  and  _422
REMARK  166  A    between atoms: _425  and  _427
REMARK  167  A    between atoms: _427  and  _428
REMARK  168  A    between atoms: _427  and  _430
REMARK  169  A    between atoms: _430  and  _431
REMARK  170  A    between atoms: _431  and  _432
REMARK  171  A    between atoms: _432  and  _433
REMARK  172  A    between atoms: _442  and  _444
REMARK  173  A    between atoms: _444  and  _445
REMARK  174  A    between atoms: _444  and  _447
REMARK  175  A    between atoms: _450  and  _452
REMARK  176  A    between atoms: _452  and  _453
REMARK  177  A    between atoms: _452  and  _455
REMARK  178  A    between atoms: _458  and  _460
REMARK  179  A    between atoms: _460  and  _461
REMARK  180  A    between atoms: _460  and  _463
REMARK  181  A    between atoms: _463  and  _464
REMARK  182  A    between atoms: _464  and  _465
REMARK  183  A    between atoms: _468  and  _470
REMARK  184  A    between atoms: _470  and  _471
REMARK  185  A    between atoms: _470  and  _473
REMARK  186  A    between atoms: _476  and  _478
REMARK  187  A    between atoms: _478  and  _479
REMARK  188  A    between atoms: _478  and  _481
REMARK  189  A    between atoms: _481  and  _482
REMARK  190  A    between atoms: _485  and  _487
REMARK  191  A    between atoms: _487  and  _488
REMARK  192  A    between atoms: _487  and  _490
REMARK  193  A    between atoms: _490  and  _491
REMARK  194  A    between atoms: _496  and  _497
REMARK  195  A    between atoms: _499  and  _501
REMARK  196  A    between atoms: _501  and  _502
REMARK  197  A    between atoms: _501  and  _504
REMARK  198  A    between atoms: _504  and  _505
REMARK  199  A    between atoms: _505  and  _506
REMARK  200  A    between atoms: _509  and  _510
REMARK  201  A    between atoms: _515  and  _517
REMARK  202  A    between atoms: _517  and  _518
REMARK  203  A    between atoms: _517  and  _520
REMARK  204  A    between atoms: _520  and  _521
REMARK  205  A    between atoms: _523  and  _525
REMARK  206  A    between atoms: _525  and  _526
REMARK  207  A    between atoms: _525  and  _528
REMARK  208  A    between atoms: _528  and  _529
REMARK  209  A    between atoms: _532  and  _534
REMARK  210  A    between atoms: _534  and  _535
REMARK  211  A    between atoms: _534  and  _537
REMARK  212  A    between atoms: _537  and  _538
REMARK  213  A    between atoms: _538  and  _539
REMARK  214  A    between atoms: _542  and  _544
REMARK  215  A    between atoms: _544  and  _545
REMARK  216  A    between atoms: _544  and  _547
REMARK  217  A    between atoms: _547  and  _548
REMARK  218  A    between atoms: _553  and  _554
REMARK  219  A    between atoms: _556  and  _558
REMARK  220  A    between atoms: _558  and  _559
REMARK  221  A    between atoms: _558  and  _561
REMARK  222  A    between atoms: _561  and  _562
REMARK                            x       y       z     vdW  Elec       q    Type
REMARK                         _______ _______ _______ _____ _____    ______ ____
ROOT
ATOM      1  CA  TYR A   3     -48.192 -54.333  30.775  0.00  0.00    +0.153 C 
ENDROOT
BRANCH   1   3
ATOM      2  C   THR A   2     -48.714 -55.564  28.758  0.00  0.00    +0.243 C 
ATOM      3  N   TYR A   3     -49.094 -54.715  29.700  0.00  0.00    -0.297 N 
ATOM      4  H   TYR A   3     -50.053 -54.315  29.671  0.00  0.00    +0.150 HD
ATOM      5  O   THR A   2     -47.613 -56.116  28.769  0.00  0.00    -0.273 OA
BRANCH   2   6
ATOM      6  CA  THR A   2     -49.722 -55.835  27.644  0.00  0.00    +0.176 C 
BRANCH   6   8
ATOM      7  C   VAL A   1     -49.370 -54.547  25.588  0.00  0.00    +0.238 C 
ATOM      8  N   THR A   2     -49.097 -55.613  26.339  0.00  0.00    -0.295 N 
ATOM      9  H   THR A   2     -48.415 -56.313  25.985  0.00  0.00    +0.150 HD
ATOM     10  O   VAL A   1     -50.236 -53.723  25.885  0.00  0.00    -0.274 OA
BRANCH   7  11
ATOM     11  CA  VAL A   1     -48.559 -54.392  24.300  0.00  0.00    +0.145 C 
BRANCH  11  12
ATOM     12  CB  VAL A   1     -47.420 -53.348  24.511  0.00  0.00    +0.025 C 
ATOM     13  CG2 VAL A   1     -46.522 -53.749  25.670  0.00  0.00    +0.002 C 
ATOM     14  CG1 VAL A   1     -46.600 -53.189  23.234  0.00  0.00    +0.002 C 
ENDBRANCH  11  12
BRANCH  11  15
ATOM     15  N   VAL A   1     -49.386 -54.024  23.152  0.00  0.00    -0.238 NA
ATOM     16  H   VAL A   1     -49.892 -53.115  23.163  0.00  0.00    +0.142 HD
ENDBRANCH  11  15
ENDBRANCH   7  11
ENDBRANCH   6   8
BRANCH   6  17
ATOM     17  CB  THR A   2     -50.249 -57.282  27.789  0.00  0.00    +0.137 C 
ATOM     18  CG2 THR A   2     -51.188 -57.389  28.964  0.00  0.00    +0.034 C 
BRANCH  17  19
ATOM     19  OG1 THR A   2     -50.946 -57.659  26.598  0.00  0.00    -0.382 OA
ATOM     20  HG1 THR A   2     -51.282 -58.585  26.693  0.00  0.00    +0.210 HD
ENDBRANCH  17  19
ENDBRANCH   6  17
ENDBRANCH   2   6
ENDBRANCH   1   3
BRANCH   1  21
ATOM     21  C   TYR A   3     -48.587 -55.055  32.060  0.00  0.00    +0.241 C 
ATOM     22  N   SER A   4     -47.636 -55.207  32.983  0.00  0.00    -0.295 N 
ATOM     23  H   SER A   4     -46.691 -54.815  32.799  0.00  0.00    +0.150 HD
ATOM     24  O   TYR A   3     -49.736 -55.468  32.208  0.00  0.00    -0.273 OA
BRANCH  22  25
ATOM     25  CA  SER A   4     -47.878 -55.908  34.247  0.00  0.00    +0.178 C 
BRANCH  25  26
ATOM     26  C   SER A   4     -48.990 -55.239  35.045  0.00  0.00    +0.243 C 
ATOM     27  O   SER A   4     -49.634 -55.870  35.880  0.00  0.00    -0.273 OA
ATOM     28  N   CYS A   5     -49.215 -53.955  34.783  0.00  0.00    -0.296 N 
ATOM     29  H   CYS A   5     -48.641 -53.482  34.056  0.00  0.00    +0.150 HD
BRANCH  28  30
ATOM     30  CA  CYS A   5     -50.241 -53.186  35.482  0.00  0.00    +0.160 C 
ATOM     31  C   CYS A   5     -51.646 -53.710  35.196  0.00  0.00    +0.242 C 
ATOM     32  O   CYS A   5     -52.505 -53.709  36.075  0.00  0.00    -0.273 OA
ATOM     33  N   CYS A   6     -51.874 -54.154  33.960  0.00  0.00    -0.297 N 
ATOM     34  CA  CYS A   6     -53.234 -54.354  33.455  0.00  0.00    +0.149 C 
ATOM     35  CB  CYS A   6     -53.674 -53.134  32.624  0.00  0.00    +0.096 C 
ATOM     36  SG  CYS A   6     -53.009 -51.533  33.190  0.00  0.00    -0.080 S 
ATOM     37  SG  CYS A   5     -50.977 -51.372  33.446  0.00  0.00    -0.080 S 
ATOM     38  H   CYS A   6     -51.066 -54.363  33.339  0.00  0.00    +0.150 HD
ATOM     39  CB  CYS A   5     -50.172 -51.713  35.060  0.00  0.00    +0.098 C 
BRANCH  34  40
ATOM     40  C   CYS A   6     -53.347 -55.603  32.598  0.00  0.00    +0.228 C 
ATOM     41  O   CYS A   6     -52.390 -55.981  31.924  0.00  0.00    -0.286 OA
ENDBRANCH  34  40
ENDBRANCH  28  30
ENDBRANCH  25  26
BRANCH  25  42
ATOM     42  CB  SER A   4     -46.595 -55.977  35.089  0.00  0.00    +0.166 C 
BRANCH  42  43
ATOM     43  OG  SER A   4     -46.445 -54.820  35.900  0.00  0.00    -0.380 OA
ATOM     44  H   SER A   4     -46.400 -54.017  35.322  0.00  0.00    +0.211 HD
ENDBRANCH  42  43
ENDBRANCH  25  42
ENDBRANCH  22  25
ENDBRANCH   1  21
BRANCH   1  45
ATOM     45  CB  TYR A   3     -48.207 -52.807  30.954  0.00  0.00    +0.055 C 
BRANCH  45  46
ATOM     46  CG  TYR A   3     -47.910 -52.079  29.658  0.00  0.00    -0.020 A 
ATOM     47  CD2 TYR A   3     -46.608 -51.942  29.196  0.00  0.00    -0.001 A 
ATOM     48  CE2 TYR A   3     -46.329 -51.287  28.000  0.00  0.00    +0.036 A 
ATOM     49  CZ  TYR A   3     -47.367 -50.768  27.247  0.00  0.00    +0.134 A 
ATOM     50  CE1 TYR A   3     -48.669 -50.899  27.684  0.00  0.00    +0.036 A 
ATOM     51  CD1 TYR A   3     -48.933 -51.555  28.885  0.00  0.00    -0.001 A 
BRANCH  49  52
ATOM     52  OH  TYR A   3     -47.111 -50.118  26.057  0.00  0.00    -0.506 OA
ATOM     53  HH  TYR A   3     -47.570 -50.591  25.318  0.00  0.00    +0.292 HD
ENDBRANCH  49  52
ENDBRANCH  45  46
ENDBRANCH   1  45
TORSDOF 18
REMARK  Name = ../refined-set-2016/4qac/4qac_pocket.pdb
REMARK  222 active torsions:
REMARK  status: ('A' for Active; 'I' for Inactive)
REMARK    1  A    between atoms: _1  and  _3
REMARK    2  A    between atoms: _3  and  _4
REMARK    3  A    between atoms: _3  and  _6
REMARK    4  A    between atoms: _6  and  _7
REMARK    5  A    between atoms: _10  and  _12
REMARK    6  A    between atoms: _12  and  _13
REMARK    7  A    between atoms: _12  and  _15
REMARK    8  A    between atoms: _15  and  _16
REMARK    9  A    between atoms: _19  and  _21
REMARK   10  A    between atoms: _21  and  _22
REMARK   11  A    between atoms: _25  and  _27
REMARK   12  A    between atoms: _27  and  _28
REMARK   13  A    between atoms: _31  and  _33
REMARK   14  A    between atoms: _33  and  _34
REMARK   15  A    between atoms: _33  and  _36
REMARK   16  A    between atoms: _36  and  _37
REMARK   17  A    between atoms: _42  and  _43
REMARK   18  A    between atoms: _45  and  _47
REMARK   19  A    between atoms: _47  and  _48
REMARK   20  A    between atoms: _47  and  _50
REMARK   21  A    between atoms: _50  and  _51
REMARK   22  A    between atoms: _56  and  _58
REMARK   23  A    between atoms: _58  and  _59
REMARK   24  A    between atoms: _62  and  _64
REMARK   25  A    between atoms: _64  and  _65
REMARK   26  A    between atoms: _64  and  _67
REMARK   27  A    between atoms: _67  and  _68
REMARK   28  A    between atoms: _68  and  _69
REMARK   29  A    between atoms: _69  and  _70
REMARK   30  A    between atoms: _70  and  _71
REMARK   31  A    between atoms: _75  and  _77
REMARK   32  A    between atoms: _77  and  _78
REMARK   33  A    between atoms: _77  and  _80
REMARK   34  A    between atoms: _80  and  _81
REMARK   35  A    between atoms: _84  and  _86
REMARK   36  A    between atoms: _86  and  _87
REMARK   37  A    between atoms: _89  and  _91
REMARK   38  A    between atoms: _91  and  _92
REMARK   39  A    between atoms: _91  and  _94
REMARK   40  A    between atoms: _94  and  _95
REMARK   41  A    between atoms: _97  and  _99
REMARK   42  A    between atoms: _99  and  _100
REMARK   43  A    between atoms: _99  and  _102
REMARK   44  A    between atoms: _102  and  _103
REMARK   45  A    between atoms: _113  and  _115
REMARK   46  A    between atoms: _115  and  _116
REMARK   47  A    between atoms: _115  and  _118
REMARK   48  A    between atoms: _118  and  _119
REMARK   49  A    between atoms: _122  and  _124
REMARK   50  A    between atoms: _124  and  _125
REMARK   51  A    between atoms: _124  and  _127
REMARK   52  A    between atoms: _127  and  _128
REMARK   53  A    between atoms: _133  and  _135
REMARK   54  A    between atoms: _135  and  _136
REMARK   55  A    between atoms: _135  and  _138
REMARK   56  A    between atoms: _138  and  _139
REMARK   57  A    between atoms: _144  and  _146
REMARK   58  A    between atoms: _146  and  _147
REMARK   59  A    between atoms: _146  and  _149
REMARK   60  A    between atoms: _152  and  _154
REMARK   61  A    between atoms: _154  and  _155
REMARK   62  A    between atoms: _154  and  _157
REMARK   63  A    between atoms: _157  and  _158
REMARK   64  A    between atoms: _161  and  _163
REMARK   65  A    between atoms: _163  and  _164
REMARK   66  A    between atoms: _163  and  _166
REMARK   67  A    between atoms: _166  and  _167
REMARK   68  A    between atoms: _172  and  _173
REMARK   69  A    between atoms: _175  and  _177
REMARK   70  A    between atoms: _177  and  _178
REMARK   71  A    between atoms: _177  and  _180
REMARK   72  A    between atoms: _180  and  _181
REMARK   73  A    between atoms: _183  and  _185
REMARK   74  A    between atoms: _192  and  _193
REMARK   75  A    between atoms: _197  and  _199
REMARK   76  A    between atoms: _199  and  _200
REMARK   77  A    between atoms: _199  and  _202
REMARK   78  A    between atoms: _202  and  _203
REMARK   79  A    between atoms: _203  and  _204
REMARK   80  A    between atoms: _207  and  _209
REMARK   81  A    between atoms: _209  and  _210
REMARK   82  A    between atoms: _213  and  _215
REMARK   83  A    between atoms: _215  and  _216
REMARK   84  A    between atoms: _215  and  _218
REMARK   85  A    between atoms: _218  and  _219
REMARK   86  A    between atoms: _224  and  _225
REMARK   87  A    between atoms: _227  and  _229
REMARK   88  A    between atoms: _229  and  _230
REMARK   89  A    between atoms: _229  and  _232
REMARK   90  A    between atoms: _232  and  _233
REMARK   91  A    between atoms: _233  and  _234
REMARK   92  A    between atoms: _237  and  _239
REMARK   93  A    between atoms: _239  and  _240
REMARK   94  A    between atoms: _239  and  _242
REMARK   95  A    between atoms: _242  and  _243
REMARK   96  A    between atoms: _246  and  _248
REMARK   97  A    between atoms: _248  and  _249
REMARK   98  A    between atoms: _248  and  _251
REMARK   99  A    between atoms: _251  and  _252
REMARK  100  A    between atoms: _252  and  _253
REMARK  101  A    between atoms: _253  and  _254
REMARK  102  A    between atoms: _254  and  _255
REMARK  103  A    between atoms: _259  and  _261
REMARK  104  A    between atoms: _261  and  _262
REMARK  105  A    between atoms: _261  and  _264
REMARK  106  A    between atoms: _264  and  _265
REMARK  107  A    between atoms: _271  and  _273
REMARK  108  A    between atoms: _273  and  _274
REMARK  109  A    between atoms: _273  and  _276
REMARK  110  A    between atoms: _276  and  _277
REMARK  111  A    between atoms: _280  and  _282
REMARK  112  A    between atoms: _282  and  _283
REMARK  113  A    between atoms: _282  and  _285
REMARK  114  A    between atoms: _288  and  _290
REMARK  115  A    between atoms: _290  and  _291
REMARK  116  A    between atoms: _290  and  _293
REMARK  117  A    between atoms: _293  and  _294
REMARK  118  A    between atoms: _300  and  _302
REMARK  119  A    between atoms: _302  and  _303
REMARK  120  A    between atoms: _302  and  _305
REMARK  121  A    between atoms: _305  and  _306
REMARK  122  A    between atoms: _316  and  _318
REMARK  123  A    between atoms: _318  and  _319
REMARK  124  A    between atoms: _318  and  _321
REMARK  125  A    between atoms: _321  and  _322
REMARK  126  A    between atoms: _322  and  _323
REMARK  127  A    between atoms: _328  and  _330
REMARK  128  A    between atoms: _330  and  _331
REMARK  129  A    between atoms: _330  and  _333
REMARK  130  A    between atoms: _333  and  _334
REMARK  131  A    between atoms: _334  and  _335
REMARK  132  A    between atoms: _340  and  _342
REMARK  133  A    between atoms: _342  and  _343
REMARK  134  A    between atoms: _342  and  _345
REMARK  135  A    between atoms: _345  and  _346
REMARK  136  A    between atoms: _349  and  _351
REMARK  137  A    between atoms: _351  and  _352
REMARK  138  A    between atoms: _351  and  _354
REMARK  139  A    between atoms: _354  and  _355
REMARK  140  A    between atoms: _358  and  _360
REMARK  141  A    between atoms: _360  and  _361
REMARK  142  A    between atoms: _360  and  _363
REMARK  143  A    between atoms: _363  and  _364
REMARK  144  A    between atoms: _364  and  _365
REMARK  145  A    between atoms: _370  and  _372
REMARK  146  A    between atoms: _372  and  _373
REMARK  147  A    between atoms: _372  and  _375
REMARK  148  A    between atoms: _378  and  _380
REMARK  149  A    between atoms: _380  and  _381
REMARK  150  A    between atoms: _380  and  _383
REMARK  151  A    between atoms: _383  and  _384
REMARK  152  A    between atoms: _386  and  _388
REMARK  153  A    between atoms: _388  and  _389
REMARK  154  A    between atoms: _388  and  _391
REMARK  155  A    between atoms: _394  and  _396
REMARK  156  A    between atoms: _396  and  _397
REMARK  157  A    between atoms: _396  and  _399
REMARK  158  A    between atoms: _399  and  _400
REMARK  159  A    between atoms: _404  and  _405
REMARK  160  A    between atoms: _410  and  _412
REMARK  161  A    between atoms: _412  and  _413
REMARK  162  A    between atoms: _412  and  _415
REMARK  163  A    between atoms: _415  and  _416
REMARK  164  A    between atoms: _419  and  _421
REMARK  165  A    between atoms: _421  and  _422
REMARK  166  A    between atoms: _425  and  _427
REMARK  167  A    between atoms: _427  and  _428
REMARK  168  A    between atoms: _427  and  _430
REMARK  169  A    between atoms: _430  and  _431
REMARK  170  A    between atoms: _431  and  _432
REMARK  171  A    between atoms: _432  and  _433
REMARK  172  A    between atoms: _442  and  _444
REMARK  173  A    between atoms: _444  and  _445
REMARK  174  A    between atoms: _444  and  _447
REMARK  175  A    between atoms: _450  and  _452
REMARK  176  A    between atoms: _452  and  _453
REMARK  177  A    between atoms: _452  and  _455
REMARK  178  A    between atoms: _458  and  _460
REMARK  179  A    between atoms: _460  and  _461
REMARK  180  A    between atoms: _460  and  _463
REMARK  181  A    between atoms: _463  and  _464
REMARK  182  A    between atoms: _464  and  _465
REMARK  183  A    between atoms: _468  and  _470
REMARK  184  A    between atoms: _470  and  _471
REMARK  185  A    between atoms: _470  and  _473
REMARK  186  A    between atoms: _476  and  _478
REMARK  187  A    between atoms: _478  and  _479
REMARK  188  A    between atoms: _478  and  _481
REMARK  189  A    between atoms: _481  and  _482
REMARK  190  A    between atoms: _485  and  _487
REMARK  191  A    between atoms: _487  and  _488
REMARK  192  A    between atoms: _487  and  _490
REMARK  193  A    between atoms: _490  and  _491
REMARK  194  A    between atoms: _496  and  _497
REMARK  195  A    between atoms: _499  and  _501
REMARK  196  A    between atoms: _501  and  _502
REMARK  197  A    between atoms: _501  and  _504
REMARK  198  A    between atoms: _504  and  _505
REMARK  199  A    between atoms: _505  and  _506
REMARK  200  A    between atoms: _509  and  _510
REMARK  201  A    between atoms: _515  and  _517
REMARK  202  A    between atoms: _517  and  _518
REMARK  203  A    between atoms: _517  and  _520
REMARK  204  A    between atoms: _520  and  _521
REMARK  205  A    between atoms: _523  and  _525
REMARK  206  A    between atoms: _525  and  _526
REMARK  207  A    between atoms: _525  and  _528
REMARK  208  A    between atoms: _528  and  _529
REMARK  209  A    between atoms: _532  and  _534
REMARK  210  A    between atoms: _534  and  _535
REMARK  211  A    between atoms: _534  and  _537
REMARK  212  A    between atoms: _537  and  _538
REMARK  213  A    between atoms: _538  and  _539
REMARK  214  A    between atoms: _542  and  _544
REMARK  215  A    between atoms: _544  and  _545
REMARK  216  A    between atoms: _544  and  _547
REMARK  217  A    between atoms: _547  and  _548
REMARK  218  A    between atoms: _553  and  _554
REMARK  219  A    between atoms: _556  and  _558
REMARK  220  A    between atoms: _558  and  _559
REMARK  221  A    between atoms: _558  and  _561
REMARK  222  A    between atoms: _561  and  _562
REMARK                            x       y       z     vdW  Elec       q    Type
REMARK                         _______ _______ _______ _____ _____    ______ ____
ROOT
ATOM      1  CA  TYR A   3     -52.705 -51.164  24.556  0.00  0.00    +0.153 C 
ENDROOT
BRANCH   1   3
ATOM      2  C   ALA A   2     -53.687 -53.316  25.183  0.00  0.00    +0.241 C 
ATOM      3  N   TYR A   3     -52.620 -52.535  25.045  0.00  0.00    -0.297 N 
ATOM      4  H   TYR A   3     -51.686 -52.918  25.296  0.00  0.00    +0.150 HD
ATOM      5  O   ALA A   2     -54.826 -52.936  24.933  0.00  0.00    -0.273 OA
BRANCH   2   6
ATOM      6  CA  ALA A   2     -53.424 -54.749  25.657  0.00  0.00    +0.149 C 
ATOM      7  CB  ALA A   2     -53.151 -55.658  24.472  0.00  0.00    +0.031 C 
BRANCH   6  10
ATOM      8  C   GLU A   1     -54.542 -55.094  27.790  0.00  0.00    +0.238 C 
ATOM      9  O   GLU A   1     -53.626 -54.541  28.404  0.00  0.00    -0.274 OA
ATOM     10  N   ALA A   2     -54.520 -55.269  26.471  0.00  0.00    -0.297 N 
ATOM     11  H   ALA A   2     -55.297 -55.785  26.011  0.00  0.00    +0.150 HD
BRANCH   8  12
ATOM     12  CA  GLU A   1     -55.772 -55.637  28.531  0.00  0.00    +0.145 C 
BRANCH  12  13
ATOM     13  N   GLU A   1     -55.516 -55.994  29.935  0.00  0.00    -0.238 NA
ATOM     14  H   GLU A   1     -55.814 -55.333  30.681  0.00  0.00    +0.142 HD
ENDBRANCH  12  13
BRANCH  12  15
ATOM     15  CB  GLU A   1     -56.926 -54.629  28.435  0.00  0.00    +0.038 C 
BRANCH  15  16
ATOM     16  CG  GLU A   1     -58.269 -55.155  28.923  0.00  0.00    +0.116 C 
BRANCH  16  17
ATOM     17  CD  GLU A   1     -59.000 -56.001  27.883  0.00  0.00    +0.365 C 
ATOM     18  OE2 GLU A   1     -60.249 -56.064  27.927  0.00  0.00    -0.246 OA
ATOM     19  OE1 GLU A   1     -58.338 -56.607  27.017  0.00  0.00    -0.246 OA
ENDBRANCH  16  17
ENDBRANCH  15  16
ENDBRANCH  12  15
ENDBRANCH   8  12
ENDBRANCH   6  10
ENDBRANCH   2   6
ENDBRANCH   1   3
BRANCH   1  20
ATOM     20  C   TYR A   3     -51.931 -51.049  23.271  0.00  0.00    +0.241 C 
ATOM     21  O   TYR A   3     -50.730 -51.318  23.236  0.00  0.00    -0.273 OA
ATOM     22  N   GLU A   4     -52.608 -50.638  22.211  0.00  0.00    -0.297 N 
ATOM     23  H   GLU A   4     -53.622 -50.421  22.293  0.00  0.00    +0.150 HD
BRANCH  22  24
ATOM     24  CA  GLU A   4     -51.937 -50.491  20.941  0.00  0.00    +0.149 C 
BRANCH  24  25
ATOM     25  C   GLU A   4     -51.096 -49.210  20.928  0.00  0.00    +0.241 C 
ATOM     26  O   GLU A   4     -51.356 -48.274  21.682  0.00  0.00    -0.273 OA
ATOM     27  N   ASP A   5     -50.050 -49.200  20.109  0.00  0.00    -0.298 N 
ATOM     28  H   ASP A   5     -49.760 -50.085  19.646  0.00  0.00    +0.150 HD
BRANCH  27  29
ATOM     29  CA  ASP A   5     -49.298 -47.978  19.843  0.00  0.00    +0.148 C 
BRANCH  29  30
ATOM     30  C   ASP A   5     -48.771 -48.002  18.411  0.00  0.00    +0.227 C 
ATOM     31  O   ASP A   5     -48.724 -49.058  17.780  0.00  0.00    -0.286 OA
ENDBRANCH  29  30
BRANCH  29  32
ATOM     32  CB  ASP A   5     -48.171 -47.743  20.871  0.00  0.00    +0.142 C 
BRANCH  32  33
ATOM     33  CG  ASP A   5     -46.976 -48.704  20.704  0.00  0.00    +0.367 C 
ATOM     34  OD2 ASP A   5     -46.475 -49.235  21.727  0.00  0.00    -0.246 OA
ATOM     35  OD1 ASP A   5     -46.514 -48.918  19.563  0.00  0.00    -0.246 OA
ENDBRANCH  32  33
ENDBRANCH  29  32
ENDBRANCH  27  29
ENDBRANCH  24  25
BRANCH  24  36
ATOM     36  CB  GLU A   4     -52.958 -50.563  19.789  0.00  0.00    +0.041 C 
BRANCH  36  37
ATOM     37  CG  GLU A   4     -53.702 -51.913  19.749  0.00  0.00    +0.116 C 
BRANCH  37  38
ATOM     38  CD  GLU A   4     -54.491 -52.158  18.471  0.00  0.00    +0.365 C 
ATOM     39  OE2 GLU A   4     -55.200 -53.189  18.397  0.00  0.00    -0.246 OA
ATOM     40  OE1 GLU A   4     -54.404 -51.335  17.535  0.00  0.00    -0.246 OA
ENDBRANCH  37  38
ENDBRANCH  36  37
ENDBRANCH  24  36
ENDBRANCH  22  24
ENDBRANCH   1  20
BRANCH   1  41
ATOM     41  CB  TYR A   3     -52.110 -50.194  25.588  0.00  0.00    +0.055 C 
BRANCH  41  42
ATOM     42  CG  TYR A   3     -52.924 -50.113  26.836  0.00  0.00    -0.020 A 
ATOM     43  CD2 TYR A   3     -52.710 -50.993  27.883  0.00  0.00    -0.001 A 
ATOM     44  CE2 TYR A   3     -53.474 -50.931  29.037  0.00  0.00    +0.036 A 
ATOM     45  CZ  TYR A   3     -54.477 -49.988  29.140  0.00  0.00    +0.134 A 
ATOM     46  CE1 TYR A   3     -54.717 -49.108  28.107  0.00  0.00    +0.036 A 
ATOM     47  CD1 TYR A   3     -53.940 -49.175  26.960  0.00  0.00    -0.001 A 
BRANCH  45  48
ATOM     48  OH  TYR A   3     -55.237 -49.923  30.289  0.00  0.00    -0.506 OA
ATOM     49  HH  TYR A   3     -54.935 -50.621  30.923  0.00  0.00    +0.292 HD
ENDBRANCH  45  48
ENDBRANCH  41  42
ENDBRANCH   1  41
TORSDOF 21
REMARK  Name = ../refined-set-2016/4qac/4qac_pocket.pdb
REMARK  222 active torsions:
REMARK  status: ('A' for Active; 'I' for Inactive)
REMARK    1  A    between atoms: _1  and  _3
REMARK    2  A    between atoms: _3  and  _4
REMARK    3  A    between atoms: _3  and  _6
REMARK    4  A    between atoms: _6  and  _7
REMARK    5  A    between atoms: _10  and  _12
REMARK    6  A    between atoms: _12  and  _13
REMARK    7  A    between atoms: _12  and  _15
REMARK    8  A    between atoms: _15  and  _16
REMARK    9  A    between atoms: _19  and  _21
REMARK   10  A    between atoms: _21  and  _22
REMARK   11  A    between atoms: _25  and  _27
REMARK   12  A    between atoms: _27  and  _28
REMARK   13  A    between atoms: _31  and  _33
REMARK   14  A    between atoms: _33  and  _34
REMARK   15  A    between atoms: _33  and  _36
REMARK   16  A    between atoms: _36  and  _37
REMARK   17  A    between atoms: _42  and  _43
REMARK   18  A    between atoms: _45  and  _47
REMARK   19  A    between atoms: _47  and  _48
REMARK   20  A    between atoms: _47  and  _50
REMARK   21  A    between atoms: _50  and  _51
REMARK   22  A    between atoms: _56  and  _58
REMARK   23  A    between atoms: _58  and  _59
REMARK   24  A    between atoms: _62  and  _64
REMARK   25  A    between atoms: _64  and  _65
REMARK   26  A    between atoms: _64  and  _67
REMARK   27  A    between atoms: _67  and  _68
REMARK   28  A    between atoms: _68  and  _69
REMARK   29  A    between atoms: _69  and  _70
REMARK   30  A    between atoms: _70  and  _71
REMARK   31  A    between atoms: _75  and  _77
REMARK   32  A    between atoms: _77  and  _78
REMARK   33  A    between atoms: _77  and  _80
REMARK   34  A    between atoms: _80  and  _81
REMARK   35  A    between atoms: _84  and  _86
REMARK   36  A    between atoms: _86  and  _87
REMARK   37  A    between atoms: _89  and  _91
REMARK   38  A    between atoms: _91  and  _92
REMARK   39  A    between atoms: _91  and  _94
REMARK   40  A    between atoms: _94  and  _95
REMARK   41  A    between atoms: _97  and  _99
REMARK   42  A    between atoms: _99  and  _100
REMARK   43  A    between atoms: _99  and  _102
REMARK   44  A    between atoms: _102  and  _103
REMARK   45  A    between atoms: _113  and  _115
REMARK   46  A    between atoms: _115  and  _116
REMARK   47  A    between atoms: _115  and  _118
REMARK   48  A    between atoms: _118  and  _119
REMARK   49  A    between atoms: _122  and  _124
REMARK   50  A    between atoms: _124  and  _125
REMARK   51  A    between atoms: _124  and  _127
REMARK   52  A    between atoms: _127  and  _128
REMARK   53  A    between atoms: _133  and  _135
REMARK   54  A    between atoms: _135  and  _136
REMARK   55  A    between atoms: _135  and  _138
REMARK   56  A    between atoms: _138  and  _139
REMARK   57  A    between atoms: _144  and  _146
REMARK   58  A    between atoms: _146  and  _147
REMARK   59  A    between atoms: _146  and  _149
REMARK   60  A    between atoms: _152  and  _154
REMARK   61  A    between atoms: _154  and  _155
REMARK   62  A    between atoms: _154  and  _157
REMARK   63  A    between atoms: _157  and  _158
REMARK   64  A    between atoms: _161  and  _163
REMARK   65  A    between atoms: _163  and  _164
REMARK   66  A    between atoms: _163  and  _166
REMARK   67  A    between atoms: _166  and  _167
REMARK   68  A    between atoms: _172  and  _173
REMARK   69  A    between atoms: _175  and  _177
REMARK   70  A    between atoms: _177  and  _178
REMARK   71  A    between atoms: _177  and  _180
REMARK   72  A    between atoms: _180  and  _181
REMARK   73  A    between atoms: _183  and  _185
REMARK   74  A    between atoms: _192  and  _193
REMARK   75  A    between atoms: _197  and  _199
REMARK   76  A    between atoms: _199  and  _200
REMARK   77  A    between atoms: _199  and  _202
REMARK   78  A    between atoms: _202  and  _203
REMARK   79  A    between atoms: _203  and  _204
REMARK   80  A    between atoms: _207  and  _209
REMARK   81  A    between atoms: _209  and  _210
REMARK   82  A    between atoms: _213  and  _215
REMARK   83  A    between atoms: _215  and  _216
REMARK   84  A    between atoms: _215  and  _218
REMARK   85  A    between atoms: _218  and  _219
REMARK   86  A    between atoms: _224  and  _225
REMARK   87  A    between atoms: _227  and  _229
REMARK   88  A    between atoms: _229  and  _230
REMARK   89  A    between atoms: _229  and  _232
REMARK   90  A    between atoms: _232  and  _233
REMARK   91  A    between atoms: _233  and  _234
REMARK   92  A    between atoms: _237  and  _239
REMARK   93  A    between atoms: _239  and  _240
REMARK   94  A    between atoms: _239  and  _242
REMARK   95  A    between atoms: _242  and  _243
REMARK   96  A    between atoms: _246  and  _248
REMARK   97  A    between atoms: _248  and  _249
REMARK   98  A    between atoms: _248  and  _251
REMARK   99  A    between atoms: _251  and  _252
REMARK  100  A    between atoms: _252  and  _253
REMARK  101  A    between atoms: _253  and  _254
REMARK  102  A    between atoms: _254  and  _255
REMARK  103  A    between atoms: _259  and  _261
REMARK  104  A    between atoms: _261  and  _262
REMARK  105  A    between atoms: _261  and  _264
REMARK  106  A    between atoms: _264  and  _265
REMARK  107  A    between atoms: _271  and  _273
REMARK  108  A    between atoms: _273  and  _274
REMARK  109  A    between atoms: _273  and  _276
REMARK  110  A    between atoms: _276  and  _277
REMARK  111  A    between atoms: _280  and  _282
REMARK  112  A    between atoms: _282  and  _283
REMARK  113  A    between atoms: _282  and  _285
REMARK  114  A    between atoms: _288  and  _290
REMARK  115  A    between atoms: _290  and  _291
REMARK  116  A    between atoms: _290  and  _293
REMARK  117  A    between atoms: _293  and  _294
REMARK  118  A    between atoms: _300  and  _302
REMARK  119  A    between atoms: _302  and  _303
REMARK  120  A    between atoms: _302  and  _305
REMARK  121  A    between atoms: _305  and  _306
REMARK  122  A    between atoms: _316  and  _318
REMARK  123  A    between atoms: _318  and  _319
REMARK  124  A    between atoms: _318  and  _321
REMARK  125  A    between atoms: _321  and  _322
REMARK  126  A    between atoms: _322  and  _323
REMARK  127  A    between atoms: _328  and  _330
REMARK  128  A    between atoms: _330  and  _331
REMARK  129  A    between atoms: _330  and  _333
REMARK  130  A    between atoms: _333  and  _334
REMARK  131  A    between atoms: _334  and  _335
REMARK  132  A    between atoms: _340  and  _342
REMARK  133  A    between atoms: _342  and  _343
REMARK  134  A    between atoms: _342  and  _345
REMARK  135  A    between atoms: _345  and  _346
REMARK  136  A    between atoms: _349  and  _351
REMARK  137  A    between atoms: _351  and  _352
REMARK  138  A    between atoms: _351  and  _354
REMARK  139  A    between atoms: _354  and  _355
REMARK  140  A    between atoms: _358  and  _360
REMARK  141  A    between atoms: _360  and  _361
REMARK  142  A    between atoms: _360  and  _363
REMARK  143  A    between atoms: _363  and  _364
REMARK  144  A    between atoms: _364  and  _365
REMARK  145  A    between atoms: _370  and  _372
REMARK  146  A    between atoms: _372  and  _373
REMARK  147  A    between atoms: _372  and  _375
REMARK  148  A    between atoms: _378  and  _380
REMARK  149  A    between atoms: _380  and  _381
REMARK  150  A    between atoms: _380  and  _383
REMARK  151  A    between atoms: _383  and  _384
REMARK  152  A    between atoms: _386  and  _388
REMARK  153  A    between atoms: _388  and  _389
REMARK  154  A    between atoms: _388  and  _391
REMARK  155  A    between atoms: _394  and  _396
REMARK  156  A    between atoms: _396  and  _397
REMARK  157  A    between atoms: _396  and  _399
REMARK  158  A    between atoms: _399  and  _400
REMARK  159  A    between atoms: _404  and  _405
REMARK  160  A    between atoms: _410  and  _412
REMARK  161  A    between atoms: _412  and  _413
REMARK  162  A    between atoms: _412  and  _415
REMARK  163  A    between atoms: _415  and  _416
REMARK  164  A    between atoms: _419  and  _421
REMARK  165  A    between atoms: _421  and  _422
REMARK  166  A    between atoms: _425  and  _427
REMARK  167  A    between atoms: _427  and  _428
REMARK  168  A    between atoms: _427  and  _430
REMARK  169  A    between atoms: _430  and  _431
REMARK  170  A    between atoms: _431  and  _432
REMARK  171  A    between atoms: _432  and  _433
REMARK  172  A    between atoms: _442  and  _444
REMARK  173  A    between atoms: _444  and  _445
REMARK  174  A    between atoms: _444  and  _447
REMARK  175  A    between atoms: _450  and  _452
REMARK  176  A    between atoms: _452  and  _453
REMARK  177  A    between atoms: _452  and  _455
REMARK  178  A    between atoms: _458  and  _460
REMARK  179  A    between atoms: _460  and  _461
REMARK  180  A    between atoms: _460  and  _463
REMARK  181  A    between atoms: _463  and  _464
REMARK  182  A    between atoms: _464  and  _465
REMARK  183  A    between atoms: _468  and  _470
REMARK  184  A    between atoms: _470  and  _471
REMARK  185  A    between atoms: _470  and  _473
REMARK  186  A    between atoms: _476  and  _478
REMARK  187  A    between atoms: _478  and  _479
REMARK  188  A    between atoms: _478  and  _481
REMARK  189  A    between atoms: _481  and  _482
REMARK  190  A    between atoms: _485  and  _487
REMARK  191  A    between atoms: _487  and  _488
REMARK  192  A    between atoms: _487  and  _490
REMARK  193  A    between atoms: _490  and  _491
REMARK  194  A    between atoms: _496  and  _497
REMARK  195  A    between atoms: _499  and  _501
REMARK  196  A    between atoms: _501  and  _502
REMARK  197  A    between atoms: _501  and  _504
REMARK  198  A    between atoms: _504  and  _505
REMARK  199  A    between atoms: _505  and  _506
REMARK  200  A    between atoms: _509  and  _510
REMARK  201  A    between atoms: _515  and  _517
REMARK  202  A    between atoms: _517  and  _518
REMARK  203  A    between atoms: _517  and  _520
REMARK  204  A    between atoms: _520  and  _521
REMARK  205  A    between atoms: _523  and  _525
REMARK  206  A    between atoms: _525  and  _526
REMARK  207  A    between atoms: _525  and  _528
REMARK  208  A    between atoms: _528  and  _529
REMARK  209  A    between atoms: _532  and  _534
REMARK  210  A    between atoms: _534  and  _535
REMARK  211  A    between atoms: _534  and  _537
REMARK  212  A    between atoms: _537  and  _538
REMARK  213  A    between atoms: _538  and  _539
REMARK  214  A    between atoms: _542  and  _544
REMARK  215  A    between atoms: _544  and  _545
REMARK  216  A    between atoms: _544  and  _547
REMARK  217  A    between atoms: _547  and  _548
REMARK  218  A    between atoms: _553  and  _554
REMARK  219  A    between atoms: _556  and  _558
REMARK  220  A    between atoms: _558  and  _559
REMARK  221  A    between atoms: _558  and  _561
REMARK  222  A    between atoms: _561  and  _562
REMARK                            x       y       z     vdW  Elec       q    Type
REMARK                         _______ _______ _______ _____ _____    ______ ____
ROOT
ATOM      1  CA  PHE A   2     -40.103 -44.610  37.529  0.00  0.00    +0.153 C 
ENDROOT
BRANCH   1   3
ATOM      2  C   LYS A   1     -42.242 -45.584  38.039  0.00  0.00    +0.238 C 
ATOM      3  N   PHE A   2     -40.930 -45.573  38.252  0.00  0.00    -0.297 N 
ATOM      4  H   PHE A   2     -40.499 -46.240  38.923  0.00  0.00    +0.150 HD
ATOM      5  O   LYS A   1     -42.783 -44.825  37.228  0.00  0.00    -0.274 OA
BRANCH   2   6
ATOM      6  CA  LYS A   1     -43.072 -46.572  38.848  0.00  0.00    +0.145 C 
BRANCH   6   7
ATOM      7  N   LYS A   1     -43.960 -45.826  39.725  0.00  0.00    -0.238 NA
ATOM      8  H   LYS A   1     -44.706 -45.233  39.307  0.00  0.00    +0.142 HD
ENDBRANCH   6   7
BRANCH   6   9
ATOM      9  CB  LYS A   1     -43.873 -47.473  37.913  0.00  0.00    +0.026 C 
BRANCH   9  10
ATOM     10  CG  LYS A   1     -44.789 -48.442  38.641  0.00  0.00    -0.000 C 
BRANCH  10  11
ATOM     11  CD  LYS A   1     -44.024 -49.366  39.596  0.00  0.00    -0.024 C 
BRANCH  11  12
ATOM     12  CE  LYS A   1     -43.223 -50.440  38.849  0.00  0.00    -0.086 C 
BRANCH  12  13
ATOM     13  NZ  LYS A   1     -42.783 -51.553  39.756  0.00  0.00    +0.380 N 
ATOM     14  HZ1 LYS A   1     -42.181 -51.166  40.510  0.00  0.00    -0.089 HD
ATOM     15  HZ2 LYS A   1     -43.619 -52.007  40.177  0.00  0.00    -0.089 HD
ATOM     16  HZ3 LYS A   1     -42.246 -52.254  39.207  0.00  0.00    -0.089 HD
ENDBRANCH  12  13
ENDBRANCH  11  12
ENDBRANCH  10  11
ENDBRANCH   9  10
ENDBRANCH   6   9
ENDBRANCH   2   6
ENDBRANCH   1   3
BRANCH   1  17
ATOM     17  C   PHE A   2     -39.985 -44.869  36.021  0.00  0.00    +0.241 C 
ATOM     18  O   PHE A   2     -39.942 -46.019  35.567  0.00  0.00    -0.273 OA
ATOM     19  N   ILE A   3     -39.976 -43.777  35.258  0.00  0.00    -0.298 N 
ATOM     20  H   ILE A   3     -40.035 -42.847  35.721  0.00  0.00    +0.150 HD
BRANCH  19  21
ATOM     21  CA  ILE A   3     -39.887 -43.826  33.810  0.00  0.00    +0.137 C 
BRANCH  21  22
ATOM     22  C   ILE A   3     -38.503 -43.340  33.402  0.00  0.00    +0.227 C 
ATOM     23  O   ILE A   3     -37.903 -43.841  32.450  0.00  0.00    -0.286 OA
ENDBRANCH  21  22
BRANCH  21  24
ATOM     24  CB  ILE A   3     -40.936 -42.885  33.122  0.00  0.00    +0.026 C 
ATOM     25  CG2 ILE A   3     -40.787 -42.914  31.608  0.00  0.00    +0.002 C 
BRANCH  24  26
ATOM     26  CG1 ILE A   3     -42.368 -43.243  33.524  0.00  0.00    +0.002 C 
ATOM     27  CD1 ILE A   3     -42.642 -44.713  33.457  0.00  0.00    +0.000 C 
ENDBRANCH  24  26
ENDBRANCH  21  24
ENDBRANCH  19  21
ENDBRANCH   1  17
BRANCH   1  28
ATOM     28  CB  PHE A   2     -38.758 -44.413  38.231  0.00  0.00    +0.055 C 
BRANCH  28  29
ATOM     29  CG  PHE A   2     -38.911 -43.843  39.609  0.00  0.00    -0.020 A 
ATOM     30  CD2 PHE A   2     -39.080 -44.678  40.706  0.00  0.00    -0.004 A 
ATOM     31  CE2 PHE A   2     -39.259 -44.151  41.989  0.00  0.00    -0.000 A 
ATOM     32  CZ  PHE A   2     -39.293 -42.772  42.177  0.00  0.00    -0.000 A 
ATOM     33  CE1 PHE A   2     -39.144 -41.927  41.085  0.00  0.00    -0.000 A 
ATOM     34  CD1 PHE A   2     -38.962 -42.468  39.802  0.00  0.00    -0.004 A 
ENDBRANCH  28  29
ENDBRANCH   1  28
TORSDOF 15
REMARK  Name = ../refined-set-2016/4qac/4qac_pocket.pdb
REMARK  222 active torsions:
REMARK  status: ('A' for Active; 'I' for Inactive)
REMARK    1  A    between atoms: _1  and  _3
REMARK    2  A    between atoms: _3  and  _4
REMARK    3  A    between atoms: _3  and  _6
REMARK    4  A    between atoms: _6  and  _7
REMARK    5  A    between atoms: _10  and  _12
REMARK    6  A    between atoms: _12  and  _13
REMARK    7  A    between atoms: _12  and  _15
REMARK    8  A    between atoms: _15  and  _16
REMARK    9  A    between atoms: _19  and  _21
REMARK   10  A    between atoms: _21  and  _22
REMARK   11  A    between atoms: _25  and  _27
REMARK   12  A    between atoms: _27  and  _28
REMARK   13  A    between atoms: _31  and  _33
REMARK   14  A    between atoms: _33  and  _34
REMARK   15  A    between atoms: _33  and  _36
REMARK   16  A    between atoms: _36  and  _37
REMARK   17  A    between atoms: _42  and  _43
REMARK   18  A    between atoms: _45  and  _47
REMARK   19  A    between atoms: _47  and  _48
REMARK   20  A    between atoms: _47  and  _50
REMARK   21  A    between atoms: _50  and  _51
REMARK   22  A    between atoms: _56  and  _58
REMARK   23  A    between atoms: _58  and  _59
REMARK   24  A    between atoms: _62  and  _64
REMARK   25  A    between atoms: _64  and  _65
REMARK   26  A    between atoms: _64  and  _67
REMARK   27  A    between atoms: _67  and  _68
REMARK   28  A    between atoms: _68  and  _69
REMARK   29  A    between atoms: _69  and  _70
REMARK   30  A    between atoms: _70  and  _71
REMARK   31  A    between atoms: _75  and  _77
REMARK   32  A    between atoms: _77  and  _78
REMARK   33  A    between atoms: _77  and  _80
REMARK   34  A    between atoms: _80  and  _81
REMARK   35  A    between atoms: _84  and  _86
REMARK   36  A    between atoms: _86  and  _87
REMARK   37  A    between atoms: _89  and  _91
REMARK   38  A    between atoms: _91  and  _92
REMARK   39  A    between atoms: _91  and  _94
REMARK   40  A    between atoms: _94  and  _95
REMARK   41  A    between atoms: _97  and  _99
REMARK   42  A    between atoms: _99  and  _100
REMARK   43  A    between atoms: _99  and  _102
REMARK   44  A    between atoms: _102  and  _103
REMARK   45  A    between atoms: _113  and  _115
REMARK   46  A    between atoms: _115  and  _116
REMARK   47  A    between atoms: _115  and  _118
REMARK   48  A    between atoms: _118  and  _119
REMARK   49  A    between atoms: _122  and  _124
REMARK   50  A    between atoms: _124  and  _125
REMARK   51  A    between atoms: _124  and  _127
REMARK   52  A    between atoms: _127  and  _128
REMARK   53  A    between atoms: _133  and  _135
REMARK   54  A    between atoms: _135  and  _136
REMARK   55  A    between atoms: _135  and  _138
REMARK   56  A    between atoms: _138  and  _139
REMARK   57  A    between atoms: _144  and  _146
REMARK   58  A    between atoms: _146  and  _147
REMARK   59  A    between atoms: _146  and  _149
REMARK   60  A    between atoms: _152  and  _154
REMARK   61  A    between atoms: _154  and  _155
REMARK   62  A    between atoms: _154  and  _157
REMARK   63  A    between atoms: _157  and  _158
REMARK   64  A    between atoms: _161  and  _163
REMARK   65  A    between atoms: _163  and  _164
REMARK   66  A    between atoms: _163  and  _166
REMARK   67  A    between atoms: _166  and  _167
REMARK   68  A    between atoms: _172  and  _173
REMARK   69  A    between atoms: _175  and  _177
REMARK   70  A    between atoms: _177  and  _178
REMARK   71  A    between atoms: _177  and  _180
REMARK   72  A    between atoms: _180  and  _181
REMARK   73  A    between atoms: _183  and  _185
REMARK   74  A    between atoms: _192  and  _193
REMARK   75  A    between atoms: _197  and  _199
REMARK   76  A    between atoms: _199  and  _200
REMARK   77  A    between atoms: _199  and  _202
REMARK   78  A    between atoms: _202  and  _203
REMARK   79  A    between atoms: _203  and  _204
REMARK   80  A    between atoms: _207  and  _209
REMARK   81  A    between atoms: _209  and  _210
REMARK   82  A    between atoms: _213  and  _215
REMARK   83  A    between atoms: _215  and  _216
REMARK   84  A    between atoms: _215  and  _218
REMARK   85  A    between atoms: _218  and  _219
REMARK   86  A    between atoms: _224  and  _225
REMARK   87  A    between atoms: _227  and  _229
REMARK   88  A    between atoms: _229  and  _230
REMARK   89  A    between atoms: _229  and  _232
REMARK   90  A    between atoms: _232  and  _233
REMARK   91  A    between atoms: _233  and  _234
REMARK   92  A    between atoms: _237  and  _239
REMARK   93  A    between atoms: _239  and  _240
REMARK   94  A    between atoms: _239  and  _242
REMARK   95  A    between atoms: _242  and  _243
REMARK   96  A    between atoms: _246  and  _248
REMARK   97  A    between atoms: _248  and  _249
REMARK   98  A    between atoms: _248  and  _251
REMARK   99  A    between atoms: _251  and  _252
REMARK  100  A    between atoms: _252  and  _253
REMARK  101  A    between atoms: _253  and  _254
REMARK  102  A    between atoms: _254  and  _255
REMARK  103  A    between atoms: _259  and  _261
REMARK  104  A    between atoms: _261  and  _262
REMARK  105  A    between atoms: _261  and  _264
REMARK  106  A    between atoms: _264  and  _265
REMARK  107  A    between atoms: _271  and  _273
REMARK  108  A    between atoms: _273  and  _274
REMARK  109  A    between atoms: _273  and  _276
REMARK  110  A    between atoms: _276  and  _277
REMARK  111  A    between atoms: _280  and  _282
REMARK  112  A    between atoms: _282  and  _283
REMARK  113  A    between atoms: _282  and  _285
REMARK  114  A    between atoms: _288  and  _290
REMARK  115  A    between atoms: _290  and  _291
REMARK  116  A    between atoms: _290  and  _293
REMARK  117  A    between atoms: _293  and  _294
REMARK  118  A    between atoms: _300  and  _302
REMARK  119  A    between atoms: _302  and  _303
REMARK  120  A    between atoms: _302  and  _305
REMARK  121  A    between atoms: _305  and  _306
REMARK  122  A    between atoms: _316  and  _318
REMARK  123  A    between atoms: _318  and  _319
REMARK  124  A    between atoms: _318  and  _321
REMARK  125  A    between atoms: _321  and  _322
REMARK  126  A    between atoms: _322  and  _323
REMARK  127  A    between atoms: _328  and  _330
REMARK  128  A    between atoms: _330  and  _331
REMARK  129  A    between atoms: _330  and  _333
REMARK  130  A    between atoms: _333  and  _334
REMARK  131  A    between atoms: _334  and  _335
REMARK  132  A    between atoms: _340  and  _342
REMARK  133  A    between atoms: _342  and  _343
REMARK  134  A    between atoms: _342  and  _345
REMARK  135  A    between atoms: _345  and  _346
REMARK  136  A    between atoms: _349  and  _351
REMARK  137  A    between atoms: _351  and  _352
REMARK  138  A    between atoms: _351  and  _354
REMARK  139  A    between atoms: _354  and  _355
REMARK  140  A    between atoms: _358  and  _360
REMARK  141  A    between atoms: _360  and  _361
REMARK  142  A    between atoms: _360  and  _363
REMARK  143  A    between atoms: _363  and  _364
REMARK  144  A    between atoms: _364  and  _365
REMARK  145  A    between atoms: _370  and  _372
REMARK  146  A    between atoms: _372  and  _373
REMARK  147  A    between atoms: _372  and  _375
REMARK  148  A    between atoms: _378  and  _380
REMARK  149  A    between atoms: _380  and  _381
REMARK  150  A    between atoms: _380  and  _383
REMARK  151  A    between atoms: _383  and  _384
REMARK  152  A    between atoms: _386  and  _388
REMARK  153  A    between atoms: _388  and  _389
REMARK  154  A    between atoms: _388  and  _391
REMARK  155  A    between atoms: _394  and  _396
REMARK  156  A    between atoms: _396  and  _397
REMARK  157  A    between atoms: _396  and  _399
REMARK  158  A    between atoms: _399  and  _400
REMARK  159  A    between atoms: _404  and  _405
REMARK  160  A    between atoms: _410  and  _412
REMARK  161  A    between atoms: _412  and  _413
REMARK  162  A    between atoms: _412  and  _415
REMARK  163  A    between atoms: _415  and  _416
REMARK  164  A    between atoms: _419  and  _421
REMARK  165  A    between atoms: _421  and  _422
REMARK  166  A    between atoms: _425  and  _427
REMARK  167  A    between atoms: _427  and  _428
REMARK  168  A    between atoms: _427  and  _430
REMARK  169  A    between atoms: _430  and  _431
REMARK  170  A    between atoms: _431  and  _432
REMARK  171  A    between atoms: _432  and  _433
REMARK  172  A    between atoms: _442  and  _444
REMARK  173  A    between atoms: _444  and  _445
REMARK  174  A    between atoms: _444  and  _447
REMARK  175  A    between atoms: _450  and  _452
REMARK  176  A    between atoms: _452  and  _453
REMARK  177  A    between atoms: _452  and  _455
REMARK  178  A    between atoms: _458  and  _460
REMARK  179  A    between atoms: _460  and  _461
REMARK  180  A    between atoms: _460  and  _463
REMARK  181  A    between atoms: _463  and  _464
REMARK  182  A    between atoms: _464  and  _465
REMARK  183  A    between atoms: _468  and  _470
REMARK  184  A    between atoms: _470  and  _471
REMARK  185  A    between atoms: _470  and  _473
REMARK  186  A    between atoms: _476  and  _478
REMARK  187  A    between atoms: _478  and  _479
REMARK  188  A    between atoms: _478  and  _481
REMARK  189  A    between atoms: _481  and  _482
REMARK  190  A    between atoms: _485  and  _487
REMARK  191  A    between atoms: _487  and  _488
REMARK  192  A    between atoms: _487  and  _490
REMARK  193  A    between atoms: _490  and  _491
REMARK  194  A    between atoms: _496  and  _497
REMARK  195  A    between atoms: _499  and  _501
REMARK  196  A    between atoms: _501  and  _502
REMARK  197  A    between atoms: _501  and  _504
REMARK  198  A    between atoms: _504  and  _505
REMARK  199  A    between atoms: _505  and  _506
REMARK  200  A    between atoms: _509  and  _510
REMARK  201  A    between atoms: _515  and  _517
REMARK  202  A    between atoms: _517  and  _518
REMARK  203  A    between atoms: _517  and  _520
REMARK  204  A    between atoms: _520  and  _521
REMARK  205  A    between atoms: _523  and  _525
REMARK  206  A    between atoms: _525  and  _526
REMARK  207  A    between atoms: _525  and  _528
REMARK  208  A    between atoms: _528  and  _529
REMARK  209  A    between atoms: _532  and  _534
REMARK  210  A    between atoms: _534  and  _535
REMARK  211  A    between atoms: _534  and  _537
REMARK  212  A    between atoms: _537  and  _538
REMARK  213  A    between atoms: _538  and  _539
REMARK  214  A    between atoms: _542  and  _544
REMARK  215  A    between atoms: _544  and  _545
REMARK  216  A    between atoms: _544  and  _547
REMARK  217  A    between atoms: _547  and  _548
REMARK  218  A    between atoms: _553  and  _554
REMARK  219  A    between atoms: _556  and  _558
REMARK  220  A    between atoms: _558  and  _559
REMARK  221  A    between atoms: _558  and  _561
REMARK  222  A    between atoms: _561  and  _562
REMARK                            x       y       z     vdW  Elec       q    Type
REMARK                         _______ _______ _______ _____ _____    ______ ____
ROOT
ATOM      1  CA  GLN A   4     -48.034 -42.319  39.617  0.00  0.00    +0.149 C 
ENDROOT
BRANCH   1   4
ATOM      2  C   TRP A   3     -46.480 -43.274  37.997  0.00  0.00    +0.241 C 
ATOM      3  O   TRP A   3     -46.139 -44.163  38.781  0.00  0.00    -0.273 OA
ATOM      4  N   GLN A   4     -47.393 -42.353  38.304  0.00  0.00    -0.297 N 
ATOM      5  H   GLN A   4     -47.656 -41.642  37.592  0.00  0.00    +0.150 HD
BRANCH   2   6
ATOM      6  CA  TRP A   3     -45.852 -43.187  36.604  0.00  0.00    +0.153 C 
BRANCH   6   8
ATOM      7  C   PHE A   2     -44.111 -41.520  36.836  0.00  0.00    +0.241 C 
ATOM      8  N   TRP A   3     -44.468 -42.791  36.736  0.00  0.00    -0.297 N 
ATOM      9  H   TRP A   3     -43.732 -43.525  36.753  0.00  0.00    +0.150 HD
ATOM     10  O   PHE A   2     -44.888 -40.583  36.625  0.00  0.00    -0.273 OA
BRANCH   7  11
ATOM     11  CA  PHE A   2     -42.649 -41.284  37.206  0.00  0.00    +0.153 C 
BRANCH  11  13
ATOM     12  C   VAL A   1     -40.891 -40.117  35.984  0.00  0.00    +0.238 C 
ATOM     13  N   PHE A   2     -42.084 -40.097  36.577  0.00  0.00    -0.297 N 
ATOM     14  H   PHE A   2     -42.627 -39.210  36.591  0.00  0.00    +0.150 HD
ATOM     15  O   VAL A   1     -40.173 -41.116  35.938  0.00  0.00    -0.274 OA
BRANCH  12  16
ATOM     16  CA  VAL A   1     -40.425 -38.813  35.367  0.00  0.00    +0.145 C 
BRANCH  16  17
ATOM     17  CB  VAL A   1     -40.294 -38.993  33.856  0.00  0.00    +0.025 C 
ATOM     18  CG2 VAL A   1     -39.656 -37.760  33.232  0.00  0.00    +0.002 C 
ATOM     19  CG1 VAL A   1     -41.670 -39.262  33.230  0.00  0.00    +0.002 C 
ENDBRANCH  16  17
BRANCH  16  20
ATOM     20  N   VAL A   1     -39.149 -38.490  35.973  0.00  0.00    -0.238 NA
ATOM     21  H   VAL A   1     -38.375 -39.181  35.905  0.00  0.00    +0.142 HD
ENDBRANCH  16  20
ENDBRANCH  12  16
ENDBRANCH  11  13
BRANCH  11  22
ATOM     22  CB  PHE A   2     -42.465 -41.248  38.734  0.00  0.00    +0.055 C 
BRANCH  22  23
ATOM     23  CG  PHE A   2     -43.057 -40.031  39.400  0.00  0.00    -0.020 A 
ATOM     24  CD2 PHE A   2     -44.290 -40.098  40.035  0.00  0.00    -0.004 A 
ATOM     25  CE2 PHE A   2     -44.842 -38.978  40.647  0.00  0.00    -0.000 A 
ATOM     26  CZ  PHE A   2     -44.161 -37.773  40.630  0.00  0.00    -0.000 A 
ATOM     27  CE1 PHE A   2     -42.933 -37.691  40.005  0.00  0.00    -0.000 A 
ATOM     28  CD1 PHE A   2     -42.388 -38.816  39.388  0.00  0.00    -0.004 A 
ENDBRANCH  22  23
ENDBRANCH  11  22
ENDBRANCH   7  11
ENDBRANCH   6   8
BRANCH   6  29
ATOM     29  CB  TRP A   3     -45.943 -44.541  35.910  0.00  0.00    +0.057 C 
BRANCH  29  30
ATOM     30  CG  TRP A   3     -47.314 -44.839  35.435  0.00  0.00    -0.002 A 
ATOM     31  CD1 TRP A   3     -48.350 -43.958  35.343  0.00  0.00    +0.068 A 
ATOM     32  NE1 TRP A   3     -49.464 -44.594  34.852  0.00  0.00    -0.352 N 
ATOM     33  HE1 TRP A   3     -50.386 -44.146  34.675  0.00  0.00    +0.166 HD
ATOM     34  CE2 TRP A   3     -49.164 -45.918  34.632  0.00  0.00    +0.056 A 
ATOM     35  CZ2 TRP A   3     -49.967 -46.959  34.148  0.00  0.00    +0.017 A 
ATOM     36  CH2 TRP A   3     -49.390 -48.198  34.025  0.00  0.00    +0.001 A 
ATOM     37  CZ3 TRP A   3     -48.046 -48.417  34.377  0.00  0.00    +0.000 A 
ATOM     38  CE3 TRP A   3     -47.254 -47.382  34.860  0.00  0.00    +0.001 A 
ATOM     39  CD2 TRP A   3     -47.815 -46.105  34.992  0.00  0.00    +0.013 A 
ENDBRANCH  29  30
ENDBRANCH   6  29
ENDBRANCH   2   6
ENDBRANCH   1   4
BRANCH   1  40
ATOM     40  C   GLN A   4     -49.360 -43.089  39.624  0.00  0.00    +0.241 C 
ATOM     41  N   GLN A   5     -49.300 -44.349  40.059  0.00  0.00    -0.297 N 
ATOM     42  H   GLN A   5     -48.380 -44.733  40.356  0.00  0.00    +0.150 HD
ATOM     43  O   GLN A   4     -50.413 -42.550  39.249  0.00  0.00    -0.273 OA
BRANCH  41  44
ATOM     44  CA  GLN A   5     -50.483 -45.211  40.134  0.00  0.00    +0.149 C 
BRANCH  44  45
ATOM     45  C   GLN A   5     -51.308 -44.931  41.377  0.00  0.00    +0.241 C 
ATOM     46  O   GLN A   5     -50.870 -45.191  42.491  0.00  0.00    -0.273 OA
ATOM     47  N   THR A   6     -52.509 -44.402  41.169  0.00  0.00    -0.295 N 
ATOM     48  H   THR A   6     -52.827 -44.250  40.190  0.00  0.00    +0.150 HD
BRANCH  47  49
ATOM     49  CA  THR A   6     -53.398 -44.027  42.262  0.00  0.00    +0.176 C 
BRANCH  49  50
ATOM     50  C   THR A   6     -54.753 -44.698  42.052  0.00  0.00    +0.243 C 
ATOM     51  N   THR A   7     -55.224 -45.413  43.070  0.00  0.00    -0.296 N 
ATOM     52  H   THR A   7     -54.652 -45.500  43.934  0.00  0.00    +0.150 HD
ATOM     53  O   THR A   6     -55.346 -44.607  40.974  0.00  0.00    -0.273 OA
BRANCH  51  54
ATOM     54  CA  THR A   7     -56.521 -46.078  43.007  0.00  0.00    +0.164 C 
BRANCH  54  55
ATOM     55  C   THR A   7     -57.261 -45.908  44.323  0.00  0.00    +0.229 C 
ATOM     56  O   THR A   7     -56.649 -45.743  45.379  0.00  0.00    -0.286 OA
ENDBRANCH  54  55
BRANCH  54  57
ATOM     57  CB  THR A   7     -56.409 -47.594  42.662  0.00  0.00    +0.136 C 
ATOM     58  CG2 THR A   7     -55.518 -47.829  41.459  0.00  0.00    +0.034 C 
BRANCH  57  59
ATOM     59  OG1 THR A   7     -55.866 -48.304  43.777  0.00  0.00    -0.382 OA
ATOM     60  HG1 THR A   7     -56.459 -48.189  44.561  0.00  0.00    +0.210 HD
ENDBRANCH  57  59
ENDBRANCH  54  57
ENDBRANCH  51  54
ENDBRANCH  49  50
BRANCH  49  61
ATOM     61  CB  THR A   6     -53.566 -42.486  42.344  0.00  0.00    +0.137 C 
ATOM     62  CG2 THR A   6     -54.185 -42.071  43.658  0.00  0.00    +0.034 C 
BRANCH  61  63
ATOM     63  OG1 THR A   6     -52.281 -41.862  42.240  0.00  0.00    -0.382 OA
ATOM     64  HG1 THR A   6     -52.388 -40.879  42.292  0.00  0.00    +0.210 HD
ENDBRANCH  61  63
ENDBRANCH  49  61
ENDBRANCH  47  49
ENDBRANCH  44  45
BRANCH  44  65
ATOM     65  CB  GLN A   5     -50.078 -46.689  40.102  0.00  0.00    +0.039 C 
BRANCH  65  66
ATOM     66  CG  GLN A   5     -49.488 -47.137  38.773  0.00  0.00    +0.087 C 
BRANCH  66  67
ATOM     67  CD  GLN A   5     -48.806 -48.490  38.855  0.00  0.00    +0.219 C 
ATOM     68  OE1 GLN A   5     -48.049 -48.763  39.793  0.00  0.00    -0.275 OA
ATOM     69  NE2 GLN A   5     -49.071 -49.347  37.871  0.00  0.00    -0.329 N 
ATOM     70 HE21 GLN A   5     -48.634 -50.291  37.872  0.00  0.00    +0.145 HD
ATOM     71 HE22 GLN A   5     -49.715 -49.073  37.102  0.00  0.00    +0.145 HD
ENDBRANCH  66  67
ENDBRANCH  65  66
ENDBRANCH  44  65
ENDBRANCH  41  44
ENDBRANCH   1  40
BRANCH   1  72
ATOM     72  CB  GLN A   4     -48.241 -40.875  40.110  0.00  0.00    +0.039 C 
BRANCH  72  73
ATOM     73  CG  GLN A   4     -49.022 -40.796  41.436  0.00  0.00    +0.087 C 
BRANCH  73  74
ATOM     74  CD  GLN A   4     -49.259 -39.375  41.943  0.00  0.00    +0.219 C 
ATOM     75  NE2 GLN A   4     -50.498 -39.087  42.325  0.00  0.00    -0.329 N 
ATOM     76 HE21 GLN A   4     -50.721 -38.142  42.697  0.00  0.00    +0.145 HD
ATOM     77 HE22 GLN A   4     -51.245 -39.807  42.252  0.00  0.00    +0.145 HD
ATOM     78  OE1 GLN A   4     -48.339 -38.559  42.009  0.00  0.00    -0.275 OA
ENDBRANCH  73  74
ENDBRANCH  72  73
ENDBRANCH   1  72
TORSDOF 29
REMARK  Name = ../refined-set-2016/4qac/4qac_pocket.pdb
REMARK  222 active torsions:
REMARK  status: ('A' for Active; 'I' for Inactive)
REMARK    1  A    between atoms: _1  and  _3
REMARK    2  A    between atoms: _3  and  _4
REMARK    3  A    between atoms: _3  and  _6
REMARK    4  A    between atoms: _6  and  _7
REMARK    5  A    between atoms: _10  and  _12
REMARK    6  A    between atoms: _12  and  _13
REMARK    7  A    between atoms: _12  and  _15
REMARK    8  A    between atoms: _15  and  _16
REMARK    9  A    between atoms: _19  and  _21
REMARK   10  A    between atoms: _21  and  _22
REMARK   11  A    between atoms: _25  and  _27
REMARK   12  A    between atoms: _27  and  _28
REMARK   13  A    between atoms: _31  and  _33
REMARK   14  A    between atoms: _33  and  _34
REMARK   15  A    between atoms: _33  and  _36
REMARK   16  A    between atoms: _36  and  _37
REMARK   17  A    between atoms: _42  and  _43
REMARK   18  A    between atoms: _45  and  _47
REMARK   19  A    between atoms: _47  and  _48
REMARK   20  A    between atoms: _47  and  _50
REMARK   21  A    between atoms: _50  and  _51
REMARK   22  A    between atoms: _56  and  _58
REMARK   23  A    between atoms: _58  and  _59
REMARK   24  A    between atoms: _62  and  _64
REMARK   25  A    between atoms: _64  and  _65
REMARK   26  A    between atoms: _64  and  _67
REMARK   27  A    between atoms: _67  and  _68
REMARK   28  A    between atoms: _68  and  _69
REMARK   29  A    between atoms: _69  and  _70
REMARK   30  A    between atoms: _70  and  _71
REMARK   31  A    between atoms: _75  and  _77
REMARK   32  A    between atoms: _77  and  _78
REMARK   33  A    between atoms: _77  and  _80
REMARK   34  A    between atoms: _80  and  _81
REMARK   35  A    between atoms: _84  and  _86
REMARK   36  A    between atoms: _86  and  _87
REMARK   37  A    between atoms: _89  and  _91
REMARK   38  A    between atoms: _91  and  _92
REMARK   39  A    between atoms: _91  and  _94
REMARK   40  A    between atoms: _94  and  _95
REMARK   41  A    between atoms: _97  and  _99
REMARK   42  A    between atoms: _99  and  _100
REMARK   43  A    between atoms: _99  and  _102
REMARK   44  A    between atoms: _102  and  _103
REMARK   45  A    between atoms: _113  and  _115
REMARK   46  A    between atoms: _115  and  _116
REMARK   47  A    between atoms: _115  and  _118
REMARK   48  A    between atoms: _118  and  _119
REMARK   49  A    between atoms: _122  and  _124
REMARK   50  A    between atoms: _124  and  _125
REMARK   51  A    between atoms: _124  and  _127
REMARK   52  A    between atoms: _127  and  _128
REMARK   53  A    between atoms: _133  and  _135
REMARK   54  A    between atoms: _135  and  _136
REMARK   55  A    between atoms: _135  and  _138
REMARK   56  A    between atoms: _138  and  _139
REMARK   57  A    between atoms: _144  and  _146
REMARK   58  A    between atoms: _146  and  _147
REMARK   59  A    between atoms: _146  and  _149
REMARK   60  A    between atoms: _152  and  _154
REMARK   61  A    between atoms: _154  and  _155
REMARK   62  A    between atoms: _154  and  _157
REMARK   63  A    between atoms: _157  and  _158
REMARK   64  A    between atoms: _161  and  _163
REMARK   65  A    between atoms: _163  and  _164
REMARK   66  A    between atoms: _163  and  _166
REMARK   67  A    between atoms: _166  and  _167
REMARK   68  A    between atoms: _172  and  _173
REMARK   69  A    between atoms: _175  and  _177
REMARK   70  A    between atoms: _177  and  _178
REMARK   71  A    between atoms: _177  and  _180
REMARK   72  A    between atoms: _180  and  _181
REMARK   73  A    between atoms: _183  and  _185
REMARK   74  A    between atoms: _192  and  _193
REMARK   75  A    between atoms: _197  and  _199
REMARK   76  A    between atoms: _199  and  _200
REMARK   77  A    between atoms: _199  and  _202
REMARK   78  A    between atoms: _202  and  _203
REMARK   79  A    between atoms: _203  and  _204
REMARK   80  A    between atoms: _207  and  _209
REMARK   81  A    between atoms: _209  and  _210
REMARK   82  A    between atoms: _213  and  _215
REMARK   83  A    between atoms: _215  and  _216
REMARK   84  A    between atoms: _215  and  _218
REMARK   85  A    between atoms: _218  and  _219
REMARK   86  A    between atoms: _224  and  _225
REMARK   87  A    between atoms: _227  and  _229
REMARK   88  A    between atoms: _229  and  _230
REMARK   89  A    between atoms: _229  and  _232
REMARK   90  A    between atoms: _232  and  _233
REMARK   91  A    between atoms: _233  and  _234
REMARK   92  A    between atoms: _237  and  _239
REMARK   93  A    between atoms: _239  and  _240
REMARK   94  A    between atoms: _239  and  _242
REMARK   95  A    between atoms: _242  and  _243
REMARK   96  A    between atoms: _246  and  _248
REMARK   97  A    between atoms: _248  and  _249
REMARK   98  A    between atoms: _248  and  _251
REMARK   99  A    between atoms: _251  and  _252
REMARK  100  A    between atoms: _252  and  _253
REMARK  101  A    between atoms: _253  and  _254
REMARK  102  A    between atoms: _254  and  _255
REMARK  103  A    between atoms: _259  and  _261
REMARK  104  A    between atoms: _261  and  _262
REMARK  105  A    between atoms: _261  and  _264
REMARK  106  A    between atoms: _264  and  _265
REMARK  107  A    between atoms: _271  and  _273
REMARK  108  A    between atoms: _273  and  _274
REMARK  109  A    between atoms: _273  and  _276
REMARK  110  A    between atoms: _276  and  _277
REMARK  111  A    between atoms: _280  and  _282
REMARK  112  A    between atoms: _282  and  _283
REMARK  113  A    between atoms: _282  and  _285
REMARK  114  A    between atoms: _288  and  _290
REMARK  115  A    between atoms: _290  and  _291
REMARK  116  A    between atoms: _290  and  _293
REMARK  117  A    between atoms: _293  and  _294
REMARK  118  A    between atoms: _300  and  _302
REMARK  119  A    between atoms: _302  and  _303
REMARK  120  A    between atoms: _302  and  _305
REMARK  121  A    between atoms: _305  and  _306
REMARK  122  A    between atoms: _316  and  _318
REMARK  123  A    between atoms: _318  and  _319
REMARK  124  A    between atoms: _318  and  _321
REMARK  125  A    between atoms: _321  and  _322
REMARK  126  A    between atoms: _322  and  _323
REMARK  127  A    between atoms: _328  and  _330
REMARK  128  A    between atoms: _330  and  _331
REMARK  129  A    between atoms: _330  and  _333
REMARK  130  A    between atoms: _333  and  _334
REMARK  131  A    between atoms: _334  and  _335
REMARK  132  A    between atoms: _340  and  _342
REMARK  133  A    between atoms: _342  and  _343
REMARK  134  A    between atoms: _342  and  _345
REMARK  135  A    between atoms: _345  and  _346
REMARK  136  A    between atoms: _349  and  _351
REMARK  137  A    between atoms: _351  and  _352
REMARK  138  A    between atoms: _351  and  _354
REMARK  139  A    between atoms: _354  and  _355
REMARK  140  A    between atoms: _358  and  _360
REMARK  141  A    between atoms: _360  and  _361
REMARK  142  A    between atoms: _360  and  _363
REMARK  143  A    between atoms: _363  and  _364
REMARK  144  A    between atoms: _364  and  _365
REMARK  145  A    between atoms: _370  and  _372
REMARK  146  A    between atoms: _372  and  _373
REMARK  147  A    between atoms: _372  and  _375
REMARK  148  A    between atoms: _378  and  _380
REMARK  149  A    between atoms: _380  and  _381
REMARK  150  A    between atoms: _380  and  _383
REMARK  151  A    between atoms: _383  and  _384
REMARK  152  A    between atoms: _386  and  _388
REMARK  153  A    between atoms: _388  and  _389
REMARK  154  A    between atoms: _388  and  _391
REMARK  155  A    between atoms: _394  and  _396
REMARK  156  A    between atoms: _396  and  _397
REMARK  157  A    between atoms: _396  and  _399
REMARK  158  A    between atoms: _399  and  _400
REMARK  159  A    between atoms: _404  and  _405
REMARK  160  A    between atoms: _410  and  _412
REMARK  161  A    between atoms: _412  and  _413
REMARK  162  A    between atoms: _412  and  _415
REMARK  163  A    between atoms: _415  and  _416
REMARK  164  A    between atoms: _419  and  _421
REMARK  165  A    between atoms: _421  and  _422
REMARK  166  A    between atoms: _425  and  _427
REMARK  167  A    between atoms: _427  and  _428
REMARK  168  A    between atoms: _427  and  _430
REMARK  169  A    between atoms: _430  and  _431
REMARK  170  A    between atoms: _431  and  _432
REMARK  171  A    between atoms: _432  and  _433
REMARK  172  A    between atoms: _442  and  _444
REMARK  173  A    between atoms: _444  and  _445
REMARK  174  A    between atoms: _444  and  _447
REMARK  175  A    between atoms: _450  and  _452
REMARK  176  A    between atoms: _452  and  _453
REMARK  177  A    between atoms: _452  and  _455
REMARK  178  A    between atoms: _458  and  _460
REMARK  179  A    between atoms: _460  and  _461
REMARK  180  A    between atoms: _460  and  _463
REMARK  181  A    between atoms: _463  and  _464
REMARK  182  A    between atoms: _464  and  _465
REMARK  183  A    between atoms: _468  and  _470
REMARK  184  A    between atoms: _470  and  _471
REMARK  185  A    between atoms: _470  and  _473
REMARK  186  A    between atoms: _476  and  _478
REMARK  187  A    between atoms: _478  and  _479
REMARK  188  A    between atoms: _478  and  _481
REMARK  189  A    between atoms: _481  and  _482
REMARK  190  A    between atoms: _485  and  _487
REMARK  191  A    between atoms: _487  and  _488
REMARK  192  A    between atoms: _487  and  _490
REMARK  193  A    between atoms: _490  and  _491
REMARK  194  A    between atoms: _496  and  _497
REMARK  195  A    between atoms: _499  and  _501
REMARK  196  A    between atoms: _501  and  _502
REMARK  197  A    between atoms: _501  and  _504
REMARK  198  A    between atoms: _504  and  _505
REMARK  199  A    between atoms: _505  and  _506
REMARK  200  A    between atoms: _509  and  _510
REMARK  201  A    between atoms: _515  and  _517
REMARK  202  A    between atoms: _517  and  _518
REMARK  203  A    between atoms: _517  and  _520
REMARK  204  A    between atoms: _520  and  _521
REMARK  205  A    between atoms: _523  and  _525
REMARK  206  A    between atoms: _525  and  _526
REMARK  207  A    between atoms: _525  and  _528
REMARK  208  A    between atoms: _528  and  _529
REMARK  209  A    between atoms: _532  and  _534
REMARK  210  A    between atoms: _534  and  _535
REMARK  211  A    between atoms: _534  and  _537
REMARK  212  A    between atoms: _537  and  _538
REMARK  213  A    between atoms: _538  and  _539
REMARK  214  A    between atoms: _542  and  _544
REMARK  215  A    between atoms: _544  and  _545
REMARK  216  A    between atoms: _544  and  _547
REMARK  217  A    between atoms: _547  and  _548
REMARK  218  A    between atoms: _553  and  _554
REMARK  219  A    between atoms: _556  and  _558
REMARK  220  A    between atoms: _558  and  _559
REMARK  221  A    between atoms: _558  and  _561
REMARK  222  A    between atoms: _561  and  _562
REMARK                            x       y       z     vdW  Elec       q    Type
REMARK                         _______ _______ _______ _____ _____    ______ ____
ROOT
ATOM      1  CA  VAL A   2     -65.224 -46.134  31.057  0.00  0.00    +0.148 C 
ENDROOT
BRANCH   1   3
ATOM      2  C   GLN A   1     -65.479 -48.520  31.560  0.00  0.00    +0.238 C 
ATOM      3  N   VAL A   2     -65.300 -47.266  31.978  0.00  0.00    -0.297 N 
ATOM      4  H   VAL A   2     -65.211 -47.087  32.999  0.00  0.00    +0.150 HD
ATOM      5  O   GLN A   1     -65.806 -48.815  30.407  0.00  0.00    -0.274 OA
BRANCH   2   6
ATOM      6  CA  GLN A   1     -65.236 -49.609  32.599  0.00  0.00    +0.145 C 
BRANCH   6   7
ATOM      7  N   GLN A   1     -66.028 -50.802  32.312  0.00  0.00    -0.238 NA
ATOM      8  H   GLN A   1     -66.243 -51.028  31.320  0.00  0.00    +0.142 HD
ENDBRANCH   6   7
BRANCH   6   9
ATOM      9  CB  GLN A   1     -63.734 -49.941  32.585  0.00  0.00    +0.036 C 
BRANCH   9  10
ATOM     10  CG  GLN A   1     -63.311 -51.153  33.383  0.00  0.00    +0.087 C 
BRANCH  10  11
ATOM     11  CD  GLN A   1     -61.811 -51.377  33.344  0.00  0.00    +0.219 C 
ATOM     12  NE2 GLN A   1     -61.358 -52.458  33.973  0.00  0.00    -0.329 N 
ATOM     13 HE21 GLN A   1     -62.024 -53.102  34.446  0.00  0.00    +0.145 HD
ATOM     14 HE22 GLN A   1     -60.338 -52.659  33.992  0.00  0.00    +0.145 HD
ATOM     15  OE1 GLN A   1     -61.067 -50.582  32.768  0.00  0.00    -0.275 OA
ENDBRANCH  10  11
ENDBRANCH   9  10
ENDBRANCH   6   9
ENDBRANCH   2   6
ENDBRANCH   1   3
BRANCH   1  16
ATOM     16  C   VAL A   2     -64.117 -45.191  31.509  0.00  0.00    +0.241 C 
ATOM     17  O   VAL A   2     -63.739 -45.184  32.685  0.00  0.00    -0.273 OA
ATOM     18  N   SER A   3     -63.584 -44.415  30.570  0.00  0.00    -0.295 N 
ATOM     19  H   SER A   3     -63.833 -44.578  29.574  0.00  0.00    +0.150 HD
BRANCH  18  20
ATOM     20  CA  SER A   3     -62.658 -43.340  30.906  0.00  0.00    +0.178 C 
BRANCH  20  21
ATOM     21  C   SER A   3     -63.491 -42.099  31.204  0.00  0.00    +0.243 C 
ATOM     22  N   VAL A   4     -63.080 -41.337  32.207  0.00  0.00    -0.298 N 
ATOM     23  H   VAL A   4     -62.189 -41.577  32.687  0.00  0.00    +0.150 HD
ATOM     24  O   SER A   3     -64.504 -41.855  30.559  0.00  0.00    -0.273 OA
BRANCH  22  25
ATOM     25  CA  VAL A   4     -63.833 -40.172  32.662  0.00  0.00    +0.137 C 
BRANCH  25  26
ATOM     26  CB  VAL A   4     -64.583 -40.500  33.983  0.00  0.00    +0.026 C 
ATOM     27  CG2 VAL A   4     -65.415 -39.311  34.469  0.00  0.00    +0.002 C 
ATOM     28  CG1 VAL A   4     -65.473 -41.731  33.815  0.00  0.00    +0.002 C 
ENDBRANCH  25  26
BRANCH  25  29
ATOM     29  C   VAL A   4     -62.839 -39.036  32.895  0.00  0.00    +0.227 C 
ATOM     30  O   VAL A   4     -61.747 -39.279  33.411  0.00  0.00    -0.286 OA
ENDBRANCH  25  29
ENDBRANCH  22  25
ENDBRANCH  20  21
BRANCH  20  31
ATOM     31  CB  SER A   3     -61.703 -43.059  29.756  0.00  0.00    +0.166 C 
BRANCH  31  32
ATOM     32  OG  SER A   3     -61.054 -44.245  29.340  0.00  0.00    -0.380 OA
ATOM     33  H   SER A   3     -60.439 -44.038  28.592  0.00  0.00    +0.211 HD
ENDBRANCH  31  32
ENDBRANCH  20  31
ENDBRANCH  18  20
ENDBRANCH   1  16
BRANCH   1  34
ATOM     34  CB  VAL A   2     -66.569 -45.361  30.946  0.00  0.00    +0.027 C 
ATOM     35  CG2 VAL A   2     -67.023 -44.928  32.297  0.00  0.00    +0.002 C 
ATOM     36  CG1 VAL A   2     -67.644 -46.218  30.276  0.00  0.00    +0.002 C 
ENDBRANCH   1  34
TORSDOF 15
REMARK  Name = ../refined-set-2016/4qac/4qac_pocket.pdb
REMARK  222 active torsions:
REMARK  status: ('A' for Active; 'I' for Inactive)
REMARK    1  A    between atoms: _1  and  _3
REMARK    2  A    between atoms: _3  and  _4
REMARK    3  A    between atoms: _3  and  _6
REMARK    4  A    between atoms: _6  and  _7
REMARK    5  A    between atoms: _10  and  _12
REMARK    6  A    between atoms: _12  and  _13
REMARK    7  A    between atoms: _12  and  _15
REMARK    8  A    between atoms: _15  and  _16
REMARK    9  A    between atoms: _19  and  _21
REMARK   10  A    between atoms: _21  and  _22
REMARK   11  A    between atoms: _25  and  _27
REMARK   12  A    between atoms: _27  and  _28
REMARK   13  A    between atoms: _31  and  _33
REMARK   14  A    between atoms: _33  and  _34
REMARK   15  A    between atoms: _33  and  _36
REMARK   16  A    between atoms: _36  and  _37
REMARK   17  A    between atoms: _42  and  _43
REMARK   18  A    between atoms: _45  and  _47
REMARK   19  A    between atoms: _47  and  _48
REMARK   20  A    between atoms: _47  and  _50
REMARK   21  A    between atoms: _50  and  _51
REMARK   22  A    between atoms: _56  and  _58
REMARK   23  A    between atoms: _58  and  _59
REMARK   24  A    between atoms: _62  and  _64
REMARK   25  A    between atoms: _64  and  _65
REMARK   26  A    between atoms: _64  and  _67
REMARK   27  A    between atoms: _67  and  _68
REMARK   28  A    between atoms: _68  and  _69
REMARK   29  A    between atoms: _69  and  _70
REMARK   30  A    between atoms: _70  and  _71
REMARK   31  A    between atoms: _75  and  _77
REMARK   32  A    between atoms: _77  and  _78
REMARK   33  A    between atoms: _77  and  _80
REMARK   34  A    between atoms: _80  and  _81
REMARK   35  A    between atoms: _84  and  _86
REMARK   36  A    between atoms: _86  and  _87
REMARK   37  A    between atoms: _89  and  _91
REMARK   38  A    between atoms: _91  and  _92
REMARK   39  A    between atoms: _91  and  _94
REMARK   40  A    between atoms: _94  and  _95
REMARK   41  A    between atoms: _97  and  _99
REMARK   42  A    between atoms: _99  and  _100
REMARK   43  A    between atoms: _99  and  _102
REMARK   44  A    between atoms: _102  and  _103
REMARK   45  A    between atoms: _113  and  _115
REMARK   46  A    between atoms: _115  and  _116
REMARK   47  A    between atoms: _115  and  _118
REMARK   48  A    between atoms: _118  and  _119
REMARK   49  A    between atoms: _122  and  _124
REMARK   50  A    between atoms: _124  and  _125
REMARK   51  A    between atoms: _124  and  _127
REMARK   52  A    between atoms: _127  and  _128
REMARK   53  A    between atoms: _133  and  _135
REMARK   54  A    between atoms: _135  and  _136
REMARK   55  A    between atoms: _135  and  _138
REMARK   56  A    between atoms: _138  and  _139
REMARK   57  A    between atoms: _144  and  _146
REMARK   58  A    between atoms: _146  and  _147
REMARK   59  A    between atoms: _146  and  _149
REMARK   60  A    between atoms: _152  and  _154
REMARK   61  A    between atoms: _154  and  _155
REMARK   62  A    between atoms: _154  and  _157
REMARK   63  A    between atoms: _157  and  _158
REMARK   64  A    between atoms: _161  and  _163
REMARK   65  A    between atoms: _163  and  _164
REMARK   66  A    between atoms: _163  and  _166
REMARK   67  A    between atoms: _166  and  _167
REMARK   68  A    between atoms: _172  and  _173
REMARK   69  A    between atoms: _175  and  _177
REMARK   70  A    between atoms: _177  and  _178
REMARK   71  A    between atoms: _177  and  _180
REMARK   72  A    between atoms: _180  and  _181
REMARK   73  A    between atoms: _183  and  _185
REMARK   74  A    between atoms: _192  and  _193
REMARK   75  A    between atoms: _197  and  _199
REMARK   76  A    between atoms: _199  and  _200
REMARK   77  A    between atoms: _199  and  _202
REMARK   78  A    between atoms: _202  and  _203
REMARK   79  A    between atoms: _203  and  _204
REMARK   80  A    between atoms: _207  and  _209
REMARK   81  A    between atoms: _209  and  _210
REMARK   82  A    between atoms: _213  and  _215
REMARK   83  A    between atoms: _215  and  _216
REMARK   84  A    between atoms: _215  and  _218
REMARK   85  A    between atoms: _218  and  _219
REMARK   86  A    between atoms: _224  and  _225
REMARK   87  A    between atoms: _227  and  _229
REMARK   88  A    between atoms: _229  and  _230
REMARK   89  A    between atoms: _229  and  _232
REMARK   90  A    between atoms: _232  and  _233
REMARK   91  A    between atoms: _233  and  _234
REMARK   92  A    between atoms: _237  and  _239
REMARK   93  A    between atoms: _239  and  _240
REMARK   94  A    between atoms: _239  and  _242
REMARK   95  A    between atoms: _242  and  _243
REMARK   96  A    between atoms: _246  and  _248
REMARK   97  A    between atoms: _248  and  _249
REMARK   98  A    between atoms: _248  and  _251
REMARK   99  A    between atoms: _251  and  _252
REMARK  100  A    between atoms: _252  and  _253
REMARK  101  A    between atoms: _253  and  _254
REMARK  102  A    between atoms: _254  and  _255
REMARK  103  A    between atoms: _259  and  _261
REMARK  104  A    between atoms: _261  and  _262
REMARK  105  A    between atoms: _261  and  _264
REMARK  106  A    between atoms: _264  and  _265
REMARK  107  A    between atoms: _271  and  _273
REMARK  108  A    between atoms: _273  and  _274
REMARK  109  A    between atoms: _273  and  _276
REMARK  110  A    between atoms: _276  and  _277
REMARK  111  A    between atoms: _280  and  _282
REMARK  112  A    between atoms: _282  and  _283
REMARK  113  A    between atoms: _282  and  _285
REMARK  114  A    between atoms: _288  and  _290
REMARK  115  A    between atoms: _290  and  _291
REMARK  116  A    between atoms: _290  and  _293
REMARK  117  A    between atoms: _293  and  _294
REMARK  118  A    between atoms: _300  and  _302
REMARK  119  A    between atoms: _302  and  _303
REMARK  120  A    between atoms: _302  and  _305
REMARK  121  A    between atoms: _305  and  _306
REMARK  122  A    between atoms: _316  and  _318
REMARK  123  A    between atoms: _318  and  _319
REMARK  124  A    between atoms: _318  and  _321
REMARK  125  A    between atoms: _321  and  _322
REMARK  126  A    between atoms: _322  and  _323
REMARK  127  A    between atoms: _328  and  _330
REMARK  128  A    between atoms: _330  and  _331
REMARK  129  A    between atoms: _330  and  _333
REMARK  130  A    between atoms: _333  and  _334
REMARK  131  A    between atoms: _334  and  _335
REMARK  132  A    between atoms: _340  and  _342
REMARK  133  A    between atoms: _342  and  _343
REMARK  134  A    between atoms: _342  and  _345
REMARK  135  A    between atoms: _345  and  _346
REMARK  136  A    between atoms: _349  and  _351
REMARK  137  A    between atoms: _351  and  _352
REMARK  138  A    between atoms: _351  and  _354
REMARK  139  A    between atoms: _354  and  _355
REMARK  140  A    between atoms: _358  and  _360
REMARK  141  A    between atoms: _360  and  _361
REMARK  142  A    between atoms: _360  and  _363
REMARK  143  A    between atoms: _363  and  _364
REMARK  144  A    between atoms: _364  and  _365
REMARK  145  A    between atoms: _370  and  _372
REMARK  146  A    between atoms: _372  and  _373
REMARK  147  A    between atoms: _372  and  _375
REMARK  148  A    between atoms: _378  and  _380
REMARK  149  A    between atoms: _380  and  _381
REMARK  150  A    between atoms: _380  and  _383
REMARK  151  A    between atoms: _383  and  _384
REMARK  152  A    between atoms: _386  and  _388
REMARK  153  A    between atoms: _388  and  _389
REMARK  154  A    between atoms: _388  and  _391
REMARK  155  A    between atoms: _394  and  _396
REMARK  156  A    between atoms: _396  and  _397
REMARK  157  A    between atoms: _396  and  _399
REMARK  158  A    between atoms: _399  and  _400
REMARK  159  A    between atoms: _404  and  _405
REMARK  160  A    between atoms: _410  and  _412
REMARK  161  A    between atoms: _412  and  _413
REMARK  162  A    between atoms: _412  and  _415
REMARK  163  A    between atoms: _415  and  _416
REMARK  164  A    between atoms: _419  and  _421
REMARK  165  A    between atoms: _421  and  _422
REMARK  166  A    between atoms: _425  and  _427
REMARK  167  A    between atoms: _427  and  _428
REMARK  168  A    between atoms: _427  and  _430
REMARK  169  A    between atoms: _430  and  _431
REMARK  170  A    between atoms: _431  and  _432
REMARK  171  A    between atoms: _432  and  _433
REMARK  172  A    between atoms: _442  and  _444
REMARK  173  A    between atoms: _444  and  _445
REMARK  174  A    between atoms: _444  and  _447
REMARK  175  A    between atoms: _450  and  _452
REMARK  176  A    between atoms: _452  and  _453
REMARK  177  A    between atoms: _452  and  _455
REMARK  178  A    between atoms: _458  and  _460
REMARK  179  A    between atoms: _460  and  _461
REMARK  180  A    between atoms: _460  and  _463
REMARK  181  A    between atoms: _463  and  _464
REMARK  182  A    between atoms: _464  and  _465
REMARK  183  A    between atoms: _468  and  _470
REMARK  184  A    between atoms: _470  and  _471
REMARK  185  A    between atoms: _470  and  _473
REMARK  186  A    between atoms: _476  and  _478
REMARK  187  A    between atoms: _478  and  _479
REMARK  188  A    between atoms: _478  and  _481
REMARK  189  A    between atoms: _481  and  _482
REMARK  190  A    between atoms: _485  and  _487
REMARK  191  A    between atoms: _487  and  _488
REMARK  192  A    between atoms: _487  and  _490
REMARK  193  A    between atoms: _490  and  _491
REMARK  194  A    between atoms: _496  and  _497
REMARK  195  A    between atoms: _499  and  _501
REMARK  196  A    between atoms: _501  and  _502
REMARK  197  A    between atoms: _501  and  _504
REMARK  198  A    between atoms: _504  and  _505
REMARK  199  A    between atoms: _505  and  _506
REMARK  200  A    between atoms: _509  and  _510
REMARK  201  A    between atoms: _515  and  _517
REMARK  202  A    between atoms: _517  and  _518
REMARK  203  A    between atoms: _517  and  _520
REMARK  204  A    between atoms: _520  and  _521
REMARK  205  A    between atoms: _523  and  _525
REMARK  206  A    between atoms: _525  and  _526
REMARK  207  A    between atoms: _525  and  _528
REMARK  208  A    between atoms: _528  and  _529
REMARK  209  A    between atoms: _532  and  _534
REMARK  210  A    between atoms: _534  and  _535
REMARK  211  A    between atoms: _534  and  _537
REMARK  212  A    between atoms: _537  and  _538
REMARK  213  A    between atoms: _538  and  _539
REMARK  214  A    between atoms: _542  and  _544
REMARK  215  A    between atoms: _544  and  _545
REMARK  216  A    between atoms: _544  and  _547
REMARK  217  A    between atoms: _547  and  _548
REMARK  218  A    between atoms: _553  and  _554
REMARK  219  A    between atoms: _556  and  _558
REMARK  220  A    between atoms: _558  and  _559
REMARK  221  A    between atoms: _558  and  _561
REMARK  222  A    between atoms: _561  and  _562
REMARK                            x       y       z     vdW  Elec       q    Type
REMARK                         _______ _______ _______ _____ _____    ______ ____
ROOT
ATOM      1  C   THR A   1     -52.063 -37.077  30.030  0.00  0.00    +0.244 C 
ATOM      2  O   THR A   1     -52.301 -36.199  30.878  0.00  0.00    -0.273 OA
ATOM      3  N   PRO A   2     -52.999 -37.550  29.172  0.00  0.00    -0.273 N 
ATOM      4  CA  PRO A   2     -54.377 -37.035  29.202  0.00  0.00    +0.140 C 
ATOM      5  CB  PRO A   2     -55.089 -37.894  28.157  0.00  0.00    +0.030 C 
ATOM      6  CG  PRO A   2     -53.979 -38.218  27.151  0.00  0.00    +0.024 C 
ATOM      7  CD  PRO A   2     -52.790 -38.480  28.042  0.00  0.00    +0.094 C 
ENDROOT
BRANCH   4   8
ATOM      8  C   PRO A   2     -55.003 -37.238  30.566  0.00  0.00    +0.227 C 
ATOM      9  O   PRO A   2     -54.882 -38.311  31.162  0.00  0.00    -0.286 OA
ENDBRANCH   4   8
BRANCH   1  10
ATOM     10  CA  THR A   1     -50.646 -37.663  29.917  0.00  0.00    +0.172 C 
BRANCH  10  11
ATOM     11  N   THR A   1     -49.644 -36.781  30.519  0.00  0.00    -0.236 NA
ATOM     12  H   THR A   1     -49.686 -36.588  31.540  0.00  0.00    +0.142 HD
ENDBRANCH  10  11
BRANCH  10  13
ATOM     13  CB  THR A   1     -50.583 -39.058  30.573  0.00  0.00    +0.135 C 
ATOM     14  CG2 THR A   1     -49.313 -39.790  30.158  0.00  0.00    +0.034 C 
BRANCH  13  15
ATOM     15  OG1 THR A   1     -50.615 -38.903  31.996  0.00  0.00    -0.383 OA
ATOM     16  HG1 THR A   1     -51.454 -38.447  32.258  0.00  0.00    +0.210 HD
ENDBRANCH  13  15
ENDBRANCH  10  13
ENDBRANCH   1  10
TORSDOF 5
REMARK  Name = ../refined-set-2016/4qac/4qac_pocket.pdb
REMARK  222 active torsions:
REMARK  status: ('A' for Active; 'I' for Inactive)
REMARK    1  A    between atoms: _1  and  _3
REMARK    2  A    between atoms: _3  and  _4
REMARK    3  A    between atoms: _3  and  _6
REMARK    4  A    between atoms: _6  and  _7
REMARK    5  A    between atoms: _10  and  _12
REMARK    6  A    between atoms: _12  and  _13
REMARK    7  A    between atoms: _12  and  _15
REMARK    8  A    between atoms: _15  and  _16
REMARK    9  A    between atoms: _19  and  _21
REMARK   10  A    between atoms: _21  and  _22
REMARK   11  A    between atoms: _25  and  _27
REMARK   12  A    between atoms: _27  and  _28
REMARK   13  A    between atoms: _31  and  _33
REMARK   14  A    between atoms: _33  and  _34
REMARK   15  A    between atoms: _33  and  _36
REMARK   16  A    between atoms: _36  and  _37
REMARK   17  A    between atoms: _42  and  _43
REMARK   18  A    between atoms: _45  and  _47
REMARK   19  A    between atoms: _47  and  _48
REMARK   20  A    between atoms: _47  and  _50
REMARK   21  A    between atoms: _50  and  _51
REMARK   22  A    between atoms: _56  and  _58
REMARK   23  A    between atoms: _58  and  _59
REMARK   24  A    between atoms: _62  and  _64
REMARK   25  A    between atoms: _64  and  _65
REMARK   26  A    between atoms: _64  and  _67
REMARK   27  A    between atoms: _67  and  _68
REMARK   28  A    between atoms: _68  and  _69
REMARK   29  A    between atoms: _69  and  _70
REMARK   30  A    between atoms: _70  and  _71
REMARK   31  A    between atoms: _75  and  _77
REMARK   32  A    between atoms: _77  and  _78
REMARK   33  A    between atoms: _77  and  _80
REMARK   34  A    between atoms: _80  and  _81
REMARK   35  A    between atoms: _84  and  _86
REMARK   36  A    between atoms: _86  and  _87
REMARK   37  A    between atoms: _89  and  _91
REMARK   38  A    between atoms: _91  and  _92
REMARK   39  A    between atoms: _91  and  _94
REMARK   40  A    between atoms: _94  and  _95
REMARK   41  A    between atoms: _97  and  _99
REMARK   42  A    between atoms: _99  and  _100
REMARK   43  A    between atoms: _99  and  _102
REMARK   44  A    between atoms: _102  and  _103
REMARK   45  A    between atoms: _113  and  _115
REMARK   46  A    between atoms: _115  and  _116
REMARK   47  A    between atoms: _115  and  _118
REMARK   48  A    between atoms: _118  and  _119
REMARK   49  A    between atoms: _122  and  _124
REMARK   50  A    between atoms: _124  and  _125
REMARK   51  A    between atoms: _124  and  _127
REMARK   52  A    between atoms: _127  and  _128
REMARK   53  A    between atoms: _133  and  _135
REMARK   54  A    between atoms: _135  and  _136
REMARK   55  A    between atoms: _135  and  _138
REMARK   56  A    between atoms: _138  and  _139
REMARK   57  A    between atoms: _144  and  _146
REMARK   58  A    between atoms: _146  and  _147
REMARK   59  A    between atoms: _146  and  _149
REMARK   60  A    between atoms: _152  and  _154
REMARK   61  A    between atoms: _154  and  _155
REMARK   62  A    between atoms: _154  and  _157
REMARK   63  A    between atoms: _157  and  _158
REMARK   64  A    between atoms: _161  and  _163
REMARK   65  A    between atoms: _163  and  _164
REMARK   66  A    between atoms: _163  and  _166
REMARK   67  A    between atoms: _166  and  _167
REMARK   68  A    between atoms: _172  and  _173
REMARK   69  A    between atoms: _175  and  _177
REMARK   70  A    between atoms: _177  and  _178
REMARK   71  A    between atoms: _177  and  _180
REMARK   72  A    between atoms: _180  and  _181
REMARK   73  A    between atoms: _183  and  _185
REMARK   74  A    between atoms: _192  and  _193
REMARK   75  A    between atoms: _197  and  _199
REMARK   76  A    between atoms: _199  and  _200
REMARK   77  A    between atoms: _199  and  _202
REMARK   78  A    between atoms: _202  and  _203
REMARK   79  A    between atoms: _203  and  _204
REMARK   80  A    between atoms: _207  and  _209
REMARK   81  A    between atoms: _209  and  _210
REMARK   82  A    between atoms: _213  and  _215
REMARK   83  A    between atoms: _215  and  _216
REMARK   84  A    between atoms: _215  and  _218
REMARK   85  A    between atoms: _218  and  _219
REMARK   86  A    between atoms: _224  and  _225
REMARK   87  A    between atoms: _227  and  _229
REMARK   88  A    between atoms: _229  and  _230
REMARK   89  A    between atoms: _229  and  _232
REMARK   90  A    between atoms: _232  and  _233
REMARK   91  A    between atoms: _233  and  _234
REMARK   92  A    between atoms: _237  and  _239
REMARK   93  A    between atoms: _239  and  _240
REMARK   94  A    between atoms: _239  and  _242
REMARK   95  A    between atoms: _242  and  _243
REMARK   96  A    between atoms: _246  and  _248
REMARK   97  A    between atoms: _248  and  _249
REMARK   98  A    between atoms: _248  and  _251
REMARK   99  A    between atoms: _251  and  _252
REMARK  100  A    between atoms: _252  and  _253
REMARK  101  A    between atoms: _253  and  _254
REMARK  102  A    between atoms: _254  and  _255
REMARK  103  A    between atoms: _259  and  _261
REMARK  104  A    between atoms: _261  and  _262
REMARK  105  A    between atoms: _261  and  _264
REMARK  106  A    between atoms: _264  and  _265
REMARK  107  A    between atoms: _271  and  _273
REMARK  108  A    between atoms: _273  and  _274
REMARK  109  A    between atoms: _273  and  _276
REMARK  110  A    between atoms: _276  and  _277
REMARK  111  A    between atoms: _280  and  _282
REMARK  112  A    between atoms: _282  and  _283
REMARK  113  A    between atoms: _282  and  _285
REMARK  114  A    between atoms: _288  and  _290
REMARK  115  A    between atoms: _290  and  _291
REMARK  116  A    between atoms: _290  and  _293
REMARK  117  A    between atoms: _293  and  _294
REMARK  118  A    between atoms: _300  and  _302
REMARK  119  A    between atoms: _302  and  _303
REMARK  120  A    between atoms: _302  and  _305
REMARK  121  A    between atoms: _305  and  _306
REMARK  122  A    between atoms: _316  and  _318
REMARK  123  A    between atoms: _318  and  _319
REMARK  124  A    between atoms: _318  and  _321
REMARK  125  A    between atoms: _321  and  _322
REMARK  126  A    between atoms: _322  and  _323
REMARK  127  A    between atoms: _328  and  _330
REMARK  128  A    between atoms: _330  and  _331
REMARK  129  A    between atoms: _330  and  _333
REMARK  130  A    between atoms: _333  and  _334
REMARK  131  A    between atoms: _334  and  _335
REMARK  132  A    between atoms: _340  and  _342
REMARK  133  A    between atoms: _342  and  _343
REMARK  134  A    between atoms: _342  and  _345
REMARK  135  A    between atoms: _345  and  _346
REMARK  136  A    between atoms: _349  and  _351
REMARK  137  A    between atoms: _351  and  _352
REMARK  138  A    between atoms: _351  and  _354
REMARK  139  A    between atoms: _354  and  _355
REMARK  140  A    between atoms: _358  and  _360
REMARK  141  A    between atoms: _360  and  _361
REMARK  142  A    between atoms: _360  and  _363
REMARK  143  A    between atoms: _363  and  _364
REMARK  144  A    between atoms: _364  and  _365
REMARK  145  A    between atoms: _370  and  _372
REMARK  146  A    between atoms: _372  and  _373
REMARK  147  A    between atoms: _372  and  _375
REMARK  148  A    between atoms: _378  and  _380
REMARK  149  A    between atoms: _380  and  _381
REMARK  150  A    between atoms: _380  and  _383
REMARK  151  A    between atoms: _383  and  _384
REMARK  152  A    between atoms: _386  and  _388
REMARK  153  A    between atoms: _388  and  _389
REMARK  154  A    between atoms: _388  and  _391
REMARK  155  A    between atoms: _394  and  _396
REMARK  156  A    between atoms: _396  and  _397
REMARK  157  A    between atoms: _396  and  _399
REMARK  158  A    between atoms: _399  and  _400
REMARK  159  A    between atoms: _404  and  _405
REMARK  160  A    between atoms: _410  and  _412
REMARK  161  A    between atoms: _412  and  _413
REMARK  162  A    between atoms: _412  and  _415
REMARK  163  A    between atoms: _415  and  _416
REMARK  164  A    between atoms: _419  and  _421
REMARK  165  A    between atoms: _421  and  _422
REMARK  166  A    between atoms: _425  and  _427
REMARK  167  A    between atoms: _427  and  _428
REMARK  168  A    between atoms: _427  and  _430
REMARK  169  A    between atoms: _430  and  _431
REMARK  170  A    between atoms: _431  and  _432
REMARK  171  A    between atoms: _432  and  _433
REMARK  172  A    between atoms: _442  and  _444
REMARK  173  A    between atoms: _444  and  _445
REMARK  174  A    between atoms: _444  and  _447
REMARK  175  A    between atoms: _450  and  _452
REMARK  176  A    between atoms: _452  and  _453
REMARK  177  A    between atoms: _452  and  _455
REMARK  178  A    between atoms: _458  and  _460
REMARK  179  A    between atoms: _460  and  _461
REMARK  180  A    between atoms: _460  and  _463
REMARK  181  A    between atoms: _463  and  _464
REMARK  182  A    between atoms: _464  and  _465
REMARK  183  A    between atoms: _468  and  _470
REMARK  184  A    between atoms: _470  and  _471
REMARK  185  A    between atoms: _470  and  _473
REMARK  186  A    between atoms: _476  and  _478
REMARK  187  A    between atoms: _478  and  _479
REMARK  188  A    between atoms: _478  and  _481
REMARK  189  A    between atoms: _481  and  _482
REMARK  190  A    between atoms: _485  and  _487
REMARK  191  A    between atoms: _487  and  _488
REMARK  192  A    between atoms: _487  and  _490
REMARK  193  A    between atoms: _490  and  _491
REMARK  194  A    between atoms: _496  and  _497
REMARK  195  A    between atoms: _499  and  _501
REMARK  196  A    between atoms: _501  and  _502
REMARK  197  A    between atoms: _501  and  _504
REMARK  198  A    between atoms: _504  and  _505
REMARK  199  A    between atoms: _505  and  _506
REMARK  200  A    between atoms: _509  and  _510
REMARK  201  A    between atoms: _515  and  _517
REMARK  202  A    between atoms: _517  and  _518
REMARK  203  A    between atoms: _517  and  _520
REMARK  204  A    between atoms: _520  and  _521
REMARK  205  A    between atoms: _523  and  _525
REMARK  206  A    between atoms: _525  and  _526
REMARK  207  A    between atoms: _525  and  _528
REMARK  208  A    between atoms: _528  and  _529
REMARK  209  A    between atoms: _532  and  _534
REMARK  210  A    between atoms: _534  and  _535
REMARK  211  A    between atoms: _534  and  _537
REMARK  212  A    between atoms: _537  and  _538
REMARK  213  A    between atoms: _538  and  _539
REMARK  214  A    between atoms: _542  and  _544
REMARK  215  A    between atoms: _544  and  _545
REMARK  216  A    between atoms: _544  and  _547
REMARK  217  A    between atoms: _547  and  _548
REMARK  218  A    between atoms: _553  and  _554
REMARK  219  A    between atoms: _556  and  _558
REMARK  220  A    between atoms: _558  and  _559
REMARK  221  A    between atoms: _558  and  _561
REMARK  222  A    between atoms: _561  and  _562
REMARK                            x       y       z     vdW  Elec       q    Type
REMARK                         _______ _______ _______ _____ _____    ______ ____
ROOT
ATOM      1  CA  ARG A   3     -60.942 -45.192  34.638  0.00  0.00    +0.149 C 
ENDROOT
BRANCH   1   3
ATOM      2  C   ALA A   2     -60.219 -42.879  34.390  0.00  0.00    +0.241 C 
ATOM      3  N   ARG A   3     -60.031 -44.082  34.930  0.00  0.00    -0.297 N 
ATOM      4  H   ARG A   3     -59.225 -44.236  35.569  0.00  0.00    +0.150 HD
ATOM      5  O   ALA A   2     -60.985 -42.685  33.439  0.00  0.00    -0.273 OA
BRANCH   2   6
ATOM      6  CA  ALA A   2     -59.422 -41.727  34.987  0.00  0.00    +0.149 C 
ATOM      7  CB  ALA A   2     -59.988 -41.345  36.347  0.00  0.00    +0.031 C 
BRANCH   6   9
ATOM      8  C   LEU A   1     -58.421 -40.275  33.293  0.00  0.00    +0.238 C 
ATOM      9  N   ALA A   2     -59.460 -40.585  34.071  0.00  0.00    -0.297 N 
ATOM     10  H   ALA A   2     -60.319 -40.000  34.026  0.00  0.00    +0.150 HD
ATOM     11  O   LEU A   1     -57.336 -40.856  33.359  0.00  0.00    -0.274 OA
BRANCH   8  12
ATOM     12  CA  LEU A   1     -58.629 -39.164  32.271  0.00  0.00    +0.145 C 
BRANCH  12  13
ATOM     13  N   LEU A   1     -57.466 -38.286  32.236  0.00  0.00    -0.238 NA
ATOM     14  H   LEU A   1     -56.548 -38.691  31.963  0.00  0.00    +0.142 HD
ENDBRANCH  12  13
BRANCH  12  15
ATOM     15  CB  LEU A   1     -58.832 -39.804  30.889  0.00  0.00    +0.026 C 
BRANCH  15  16
ATOM     16  CG  LEU A   1     -59.114 -38.893  29.699  0.00  0.00    +0.002 C 
ATOM     17  CD2 LEU A   1     -60.334 -38.018  30.005  0.00  0.00    +0.000 C 
ATOM     18  CD1 LEU A   1     -59.352 -39.723  28.413  0.00  0.00    +0.000 C 
ENDBRANCH  15  16
ENDBRANCH  12  15
ENDBRANCH   8  12
ENDBRANCH   6   9
ENDBRANCH   2   6
ENDBRANCH   1   3
BRANCH   1  19
ATOM     19  C   ARG A   3     -61.859 -45.402  35.835  0.00  0.00    +0.241 C 
ATOM     20  O   ARG A   3     -61.415 -45.382  36.986  0.00  0.00    -0.273 OA
ATOM     21  N   VAL A   4     -63.147 -45.550  35.555  0.00  0.00    -0.297 N 
ATOM     22  H   VAL A   4     -63.472 -45.394  34.580  0.00  0.00    +0.150 HD
BRANCH  21  23
ATOM     23  CA  VAL A   4     -64.120 -45.925  36.572  0.00  0.00    +0.149 C 
BRANCH  23  24
ATOM     24  C   VAL A   4     -64.650 -47.311  36.216  0.00  0.00    +0.241 C 
ATOM     25  N   VAL A   5     -64.517 -48.232  37.168  0.00  0.00    -0.298 N 
ATOM     26  H   VAL A   5     -64.117 -47.943  38.083  0.00  0.00    +0.150 HD
ATOM     27  O   VAL A   4     -65.138 -47.538  35.096  0.00  0.00    -0.273 OA
BRANCH  25  28
ATOM     28  CA  VAL A   5     -64.907 -49.632  36.989  0.00  0.00    +0.137 C 
BRANCH  28  29
ATOM     29  CB  VAL A   5     -63.888 -50.569  37.672  0.00  0.00    +0.026 C 
ATOM     30  CG2 VAL A   5     -64.185 -52.030  37.360  0.00  0.00    +0.002 C 
ATOM     31  CG1 VAL A   5     -62.486 -50.218  37.211  0.00  0.00    +0.002 C 
ENDBRANCH  28  29
BRANCH  28  32
ATOM     32  C   VAL A   5     -66.278 -49.808  37.611  0.00  0.00    +0.227 C 
ATOM     33  O   VAL A   5     -66.613 -49.087  38.552  0.00  0.00    -0.286 OA
ENDBRANCH  28  32
ENDBRANCH  25  28
ENDBRANCH  23  24
BRANCH  23  34
ATOM     34  CB  VAL A   4     -65.278 -44.908  36.690  0.00  0.00    +0.027 C 
ATOM     35  CG2 VAL A   4     -66.223 -45.298  37.851  0.00  0.00    +0.002 C 
ATOM     36  CG1 VAL A   4     -64.735 -43.505  36.903  0.00  0.00    +0.002 C 
ENDBRANCH  23  34
ENDBRANCH  21  23
ENDBRANCH   1  19
BRANCH   1  37
ATOM     37  CB  ARG A   3     -60.175 -46.487  34.317  0.00  0.00    +0.033 C 
BRANCH  37  38
ATOM     38  CG  ARG A   3     -59.452 -46.479  32.986  0.00  0.00    +0.045 C 
BRANCH  38  39
ATOM     39  CD  ARG A   3     -60.418 -46.476  31.830  0.00  0.00    +0.174 C 
BRANCH  39  40
ATOM     40  NE  ARG A   3     -60.800 -47.831  31.429  0.00  0.00    -0.265 N 
ATOM     41  HE  ARG A   3     -60.639 -48.608  32.102  0.00  0.00    +0.259 HD
ATOM     42  CZ  ARG A   3     -61.339 -48.120  30.255  0.00  0.00    +0.342 C 
ATOM     43  NH2 ARG A   3     -61.655 -49.375  29.943  0.00  0.00    -0.292 N 
ATOM     44 HH21 ARG A   3     -61.479 -50.140  30.625  0.00  0.00    +0.255 HD
ATOM     45 HH22 ARG A   3     -62.078 -49.590  29.018  0.00  0.00    +0.255 HD
ATOM     46  NH1 ARG A   3     -61.548 -47.142  29.387  0.00  0.00    -0.292 N 
ATOM     47 HH11 ARG A   3     -61.290 -46.165  29.632  0.00  0.00    +0.255 HD
ATOM     48 HH12 ARG A   3     -61.971 -47.351  28.460  0.00  0.00    +0.255 HD
ENDBRANCH  39  40
ENDBRANCH  38  39
ENDBRANCH  37  38
ENDBRANCH   1  37
TORSDOF 18
REMARK  Name = ../refined-set-2016/4qac/4qac_pocket.pdb
REMARK  222 active torsions:
REMARK  status: ('A' for Active; 'I' for Inactive)
REMARK    1  A    between atoms: _1  and  _3
REMARK    2  A    between atoms: _3  and  _4
REMARK    3  A    between atoms: _3  and  _6
REMARK    4  A    between atoms: _6  and  _7
REMARK    5  A    between atoms: _10  and  _12
REMARK    6  A    between atoms: _12  and  _13
REMARK    7  A    between atoms: _12  and  _15
REMARK    8  A    between atoms: _15  and  _16
REMARK    9  A    between atoms: _19  and  _21
REMARK   10  A    between atoms: _21  and  _22
REMARK   11  A    between atoms: _25  and  _27
REMARK   12  A    between atoms: _27  and  _28
REMARK   13  A    between atoms: _31  and  _33
REMARK   14  A    between atoms: _33  and  _34
REMARK   15  A    between atoms: _33  and  _36
REMARK   16  A    between atoms: _36  and  _37
REMARK   17  A    between atoms: _42  and  _43
REMARK   18  A    between atoms: _45  and  _47
REMARK   19  A    between atoms: _47  and  _48
REMARK   20  A    between atoms: _47  and  _50
REMARK   21  A    between atoms: _50  and  _51
REMARK   22  A    between atoms: _56  and  _58
REMARK   23  A    between atoms: _58  and  _59
REMARK   24  A    between atoms: _62  and  _64
REMARK   25  A    between atoms: _64  and  _65
REMARK   26  A    between atoms: _64  and  _67
REMARK   27  A    between atoms: _67  and  _68
REMARK   28  A    between atoms: _68  and  _69
REMARK   29  A    between atoms: _69  and  _70
REMARK   30  A    between atoms: _70  and  _71
REMARK   31  A    between atoms: _75  and  _77
REMARK   32  A    between atoms: _77  and  _78
REMARK   33  A    between atoms: _77  and  _80
REMARK   34  A    between atoms: _80  and  _81
REMARK   35  A    between atoms: _84  and  _86
REMARK   36  A    between atoms: _86  and  _87
REMARK   37  A    between atoms: _89  and  _91
REMARK   38  A    between atoms: _91  and  _92
REMARK   39  A    between atoms: _91  and  _94
REMARK   40  A    between atoms: _94  and  _95
REMARK   41  A    between atoms: _97  and  _99
REMARK   42  A    between atoms: _99  and  _100
REMARK   43  A    between atoms: _99  and  _102
REMARK   44  A    between atoms: _102  and  _103
REMARK   45  A    between atoms: _113  and  _115
REMARK   46  A    between atoms: _115  and  _116
REMARK   47  A    between atoms: _115  and  _118
REMARK   48  A    between atoms: _118  and  _119
REMARK   49  A    between atoms: _122  and  _124
REMARK   50  A    between atoms: _124  and  _125
REMARK   51  A    between atoms: _124  and  _127
REMARK   52  A    between atoms: _127  and  _128
REMARK   53  A    between atoms: _133  and  _135
REMARK   54  A    between atoms: _135  and  _136
REMARK   55  A    between atoms: _135  and  _138
REMARK   56  A    between atoms: _138  and  _139
REMARK   57  A    between atoms: _144  and  _146
REMARK   58  A    between atoms: _146  and  _147
REMARK   59  A    between atoms: _146  and  _149
REMARK   60  A    between atoms: _152  and  _154
REMARK   61  A    between atoms: _154  and  _155
REMARK   62  A    between atoms: _154  and  _157
REMARK   63  A    between atoms: _157  and  _158
REMARK   64  A    between atoms: _161  and  _163
REMARK   65  A    between atoms: _163  and  _164
REMARK   66  A    between atoms: _163  and  _166
REMARK   67  A    between atoms: _166  and  _167
REMARK   68  A    between atoms: _172  and  _173
REMARK   69  A    between atoms: _175  and  _177
REMARK   70  A    between atoms: _177  and  _178
REMARK   71  A    between atoms: _177  and  _180
REMARK   72  A    between atoms: _180  and  _181
REMARK   73  A    between atoms: _183  and  _185
REMARK   74  A    between atoms: _192  and  _193
REMARK   75  A    between atoms: _197  and  _199
REMARK   76  A    between atoms: _199  and  _200
REMARK   77  A    between atoms: _199  and  _202
REMARK   78  A    between atoms: _202  and  _203
REMARK   79  A    between atoms: _203  and  _204
REMARK   80  A    between atoms: _207  and  _209
REMARK   81  A    between atoms: _209  and  _210
REMARK   82  A    between atoms: _213  and  _215
REMARK   83  A    between atoms: _215  and  _216
REMARK   84  A    between atoms: _215  and  _218
REMARK   85  A    between atoms: _218  and  _219
REMARK   86  A    between atoms: _224  and  _225
REMARK   87  A    between atoms: _227  and  _229
REMARK   88  A    between atoms: _229  and  _230
REMARK   89  A    between atoms: _229  and  _232
REMARK   90  A    between atoms: _232  and  _233
REMARK   91  A    between atoms: _233  and  _234
REMARK   92  A    between atoms: _237  and  _239
REMARK   93  A    between atoms: _239  and  _240
REMARK   94  A    between atoms: _239  and  _242
REMARK   95  A    between atoms: _242  and  _243
REMARK   96  A    between atoms: _246  and  _248
REMARK   97  A    between atoms: _248  and  _249
REMARK   98  A    between atoms: _248  and  _251
REMARK   99  A    between atoms: _251  and  _252
REMARK  100  A    between atoms: _252  and  _253
REMARK  101  A    between atoms: _253  and  _254
REMARK  102  A    between atoms: _254  and  _255
REMARK  103  A    between atoms: _259  and  _261
REMARK  104  A    between atoms: _261  and  _262
REMARK  105  A    between atoms: _261  and  _264
REMARK  106  A    between atoms: _264  and  _265
REMARK  107  A    between atoms: _271  and  _273
REMARK  108  A    between atoms: _273  and  _274
REMARK  109  A    between atoms: _273  and  _276
REMARK  110  A    between atoms: _276  and  _277
REMARK  111  A    between atoms: _280  and  _282
REMARK  112  A    between atoms: _282  and  _283
REMARK  113  A    between atoms: _282  and  _285
REMARK  114  A    between atoms: _288  and  _290
REMARK  115  A    between atoms: _290  and  _291
REMARK  116  A    between atoms: _290  and  _293
REMARK  117  A    between atoms: _293  and  _294
REMARK  118  A    between atoms: _300  and  _302
REMARK  119  A    between atoms: _302  and  _303
REMARK  120  A    between atoms: _302  and  _305
REMARK  121  A    between atoms: _305  and  _306
REMARK  122  A    between atoms: _316  and  _318
REMARK  123  A    between atoms: _318  and  _319
REMARK  124  A    between atoms: _318  and  _321
REMARK  125  A    between atoms: _321  and  _322
REMARK  126  A    between atoms: _322  and  _323
REMARK  127  A    between atoms: _328  and  _330
REMARK  128  A    between atoms: _330  and  _331
REMARK  129  A    between atoms: _330  and  _333
REMARK  130  A    between atoms: _333  and  _334
REMARK  131  A    between atoms: _334  and  _335
REMARK  132  A    between atoms: _340  and  _342
REMARK  133  A    between atoms: _342  and  _343
REMARK  134  A    between atoms: _342  and  _345
REMARK  135  A    between atoms: _345  and  _346
REMARK  136  A    between atoms: _349  and  _351
REMARK  137  A    between atoms: _351  and  _352
REMARK  138  A    between atoms: _351  and  _354
REMARK  139  A    between atoms: _354  and  _355
REMARK  140  A    between atoms: _358  and  _360
REMARK  141  A    between atoms: _360  and  _361
REMARK  142  A    between atoms: _360  and  _363
REMARK  143  A    between atoms: _363  and  _364
REMARK  144  A    between atoms: _364  and  _365
REMARK  145  A    between atoms: _370  and  _372
REMARK  146  A    between atoms: _372  and  _373
REMARK  147  A    between atoms: _372  and  _375
REMARK  148  A    between atoms: _378  and  _380
REMARK  149  A    between atoms: _380  and  _381
REMARK  150  A    between atoms: _380  and  _383
REMARK  151  A    between atoms: _383  and  _384
REMARK  152  A    between atoms: _386  and  _388
REMARK  153  A    between atoms: _388  and  _389
REMARK  154  A    between atoms: _388  and  _391
REMARK  155  A    between atoms: _394  and  _396
REMARK  156  A    between atoms: _396  and  _397
REMARK  157  A    between atoms: _396  and  _399
REMARK  158  A    between atoms: _399  and  _400
REMARK  159  A    between atoms: _404  and  _405
REMARK  160  A    between atoms: _410  and  _412
REMARK  161  A    between atoms: _412  and  _413
REMARK  162  A    between atoms: _412  and  _415
REMARK  163  A    between atoms: _415  and  _416
REMARK  164  A    between atoms: _419  and  _421
REMARK  165  A    between atoms: _421  and  _422
REMARK  166  A    between atoms: _425  and  _427
REMARK  167  A    between atoms: _427  and  _428
REMARK  168  A    between atoms: _427  and  _430
REMARK  169  A    between atoms: _430  and  _431
REMARK  170  A    between atoms: _431  and  _432
REMARK  171  A    between atoms: _432  and  _433
REMARK  172  A    between atoms: _442  and  _444
REMARK  173  A    between atoms: _444  and  _445
REMARK  174  A    between atoms: _444  and  _447
REMARK  175  A    between atoms: _450  and  _452
REMARK  176  A    between atoms: _452  and  _453
REMARK  177  A    between atoms: _452  and  _455
REMARK  178  A    between atoms: _458  and  _460
REMARK  179  A    between atoms: _460  and  _461
REMARK  180  A    between atoms: _460  and  _463
REMARK  181  A    between atoms: _463  and  _464
REMARK  182  A    between atoms: _464  and  _465
REMARK  183  A    between atoms: _468  and  _470
REMARK  184  A    between atoms: _470  and  _471
REMARK  185  A    between atoms: _470  and  _473
REMARK  186  A    between atoms: _476  and  _478
REMARK  187  A    between atoms: _478  and  _479
REMARK  188  A    between atoms: _478  and  _481
REMARK  189  A    between atoms: _481  and  _482
REMARK  190  A    between atoms: _485  and  _487
REMARK  191  A    between atoms: _487  and  _488
REMARK  192  A    between atoms: _487  and  _490
REMARK  193  A    between atoms: _490  and  _491
REMARK  194  A    between atoms: _496  and  _497
REMARK  195  A    between atoms: _499  and  _501
REMARK  196  A    between atoms: _501  and  _502
REMARK  197  A    between atoms: _501  and  _504
REMARK  198  A    between atoms: _504  and  _505
REMARK  199  A    between atoms: _505  and  _506
REMARK  200  A    between atoms: _509  and  _510
REMARK  201  A    between atoms: _515  and  _517
REMARK  202  A    between atoms: _517  and  _518
REMARK  203  A    between atoms: _517  and  _520
REMARK  204  A    between atoms: _520  and  _521
REMARK  205  A    between atoms: _523  and  _525
REMARK  206  A    between atoms: _525  and  _526
REMARK  207  A    between atoms: _525  and  _528
REMARK  208  A    between atoms: _528  and  _529
REMARK  209  A    between atoms: _532  and  _534
REMARK  210  A    between atoms: _534  and  _535
REMARK  211  A    between atoms: _534  and  _537
REMARK  212  A    between atoms: _537  and  _538
REMARK  213  A    between atoms: _538  and  _539
REMARK  214  A    between atoms: _542  and  _544
REMARK  215  A    between atoms: _544  and  _545
REMARK  216  A    between atoms: _544  and  _547
REMARK  217  A    between atoms: _547  and  _548
REMARK  218  A    between atoms: _553  and  _554
REMARK  219  A    between atoms: _556  and  _558
REMARK  220  A    between atoms: _558  and  _559
REMARK  221  A    between atoms: _558  and  _561
REMARK  222  A    between atoms: _561  and  _562
REMARK                            x       y       z     vdW  Elec       q    Type
REMARK                         _______ _______ _______ _____ _____    ______ ____
ROOT
ATOM      1  CA  TYR A   4     -55.937 -42.544  38.042  0.00  0.00    +0.153 C 
ENDROOT
BRANCH   1   2
ATOM      2  C   TYR A   4     -54.460 -42.874  37.986  0.00  0.00    +0.241 C 
ATOM      3  O   TYR A   4     -53.852 -43.195  39.008  0.00  0.00    -0.273 OA
ATOM      4  N   MET A   5     -53.876 -42.801  36.798  0.00  0.00    -0.297 N 
ATOM      5  H   MET A   5     -54.425 -42.506  35.965  0.00  0.00    +0.150 HD
BRANCH   4   6
ATOM      6  CA  MET A   5     -52.466 -43.134  36.660  0.00  0.00    +0.150 C 
BRANCH   6   7
ATOM      7  C   MET A   5     -51.739 -42.262  35.624  0.00  0.00    +0.244 C 
ATOM      8  N   PRO A   6     -51.474 -40.988  35.977  0.00  0.00    -0.272 N 
ATOM      9  CD  PRO A   6     -51.894 -40.332  37.236  0.00  0.00    +0.094 C 
ATOM     10  CG  PRO A   6     -51.194 -38.982  37.192  0.00  0.00    +0.024 C 
ATOM     11  CB  PRO A   6     -51.022 -38.690  35.717  0.00  0.00    +0.031 C 
ATOM     12  CA  PRO A   6     -50.745 -40.068  35.092  0.00  0.00    +0.152 C 
ATOM     13  O   MET A   5     -51.418 -42.728  34.534  0.00  0.00    -0.273 OA
BRANCH  12  14
ATOM     14  C   PRO A   6     -49.239 -40.331  35.098  0.00  0.00    +0.241 C 
ATOM     15  O   PRO A   6     -48.675 -40.847  36.076  0.00  0.00    -0.273 OA
ATOM     16  N   SER A   7     -48.597 -39.983  33.993  0.00  0.00    -0.295 N 
ATOM     17  H   SER A   7     -49.147 -39.753  33.141  0.00  0.00    +0.150 HD
BRANCH  16  18
ATOM     18  CA  SER A   7     -47.145 -39.913  33.936  0.00  0.00    +0.178 C 
BRANCH  18  19
ATOM     19  C   SER A   7     -46.776 -38.466  34.255  0.00  0.00    +0.243 C 
ATOM     20  N   ILE A   8     -45.851 -38.286  35.184  0.00  0.00    -0.298 N 
ATOM     21  H   ILE A   8     -45.298 -39.098  35.526  0.00  0.00    +0.150 HD
ATOM     22  O   SER A   7     -47.347 -37.520  33.698  0.00  0.00    -0.273 OA
BRANCH  20  23
ATOM     23  CA  ILE A   8     -45.601 -36.959  35.731  0.00  0.00    +0.137 C 
BRANCH  23  24
ATOM     24  C   ILE A   8     -44.112 -36.673  35.762  0.00  0.00    +0.227 C 
ATOM     25  O   ILE A   8     -43.324 -37.477  36.279  0.00  0.00    -0.286 OA
ENDBRANCH  23  24
BRANCH  23  26
ATOM     26  CB  ILE A   8     -46.191 -36.838  37.159  0.00  0.00    +0.026 C 
ATOM     27  CG2 ILE A   8     -45.664 -35.588  37.871  0.00  0.00    +0.002 C 
BRANCH  26  28
ATOM     28  CG1 ILE A   8     -47.731 -36.841  37.096  0.00  0.00    +0.002 C 
ATOM     29  CD1 ILE A   8     -48.394 -36.824  38.441  0.00  0.00    +0.000 C 
ENDBRANCH  26  28
ENDBRANCH  23  26
ENDBRANCH  20  23
ENDBRANCH  18  19
BRANCH  18  30
ATOM     30  CB  SER A   7     -46.656 -40.317  32.544  0.00  0.00    +0.166 C 
BRANCH  30  31
ATOM     31  OG  SER A   7     -45.261 -40.124  32.429  0.00  0.00    -0.380 OA
ATOM     32  H   SER A   7     -44.966 -40.391  31.523  0.00  0.00    +0.211 HD
ENDBRANCH  30  31
ENDBRANCH  18  30
ENDBRANCH  16  18
ENDBRANCH  12  14
ENDBRANCH   6   7
BRANCH   6  33
ATOM     33  CB  MET A   5     -52.315 -44.631  36.339  0.00  0.00    +0.041 C 
BRANCH  33  34
ATOM     34  CG  MET A   5     -53.117 -45.555  37.271  0.00  0.00    +0.060 C 
BRANCH  34  35
ATOM     35  SD  MET A   5     -52.621 -47.270  37.055  0.00  0.00    -0.139 S 
ATOM     36  CE  MET A   5     -53.930 -48.145  37.883  0.00  0.00    +0.069 C 
ENDBRANCH  34  35
ENDBRANCH  33  34
ENDBRANCH   6  33
ENDBRANCH   4   6
ENDBRANCH   1   2
BRANCH   1  38
ATOM     37  C   LEU A   3     -57.534 -44.369  38.103  0.00  0.00    +0.241 C 
ATOM     38  N   TYR A   4     -56.587 -43.660  38.701  0.00  0.00    -0.297 N 
ATOM     39  H   TYR A   4     -56.302 -43.911  39.669  0.00  0.00    +0.150 HD
ATOM     40  O   LEU A   3     -58.012 -44.069  37.009  0.00  0.00    -0.273 OA
BRANCH  37  41
ATOM     41  CA  LEU A   3     -58.001 -45.606  38.849  0.00  0.00    +0.149 C 
BRANCH  41  44
ATOM     42  C   VAL A   2     -59.946 -45.543  40.275  0.00  0.00    +0.241 C 
ATOM     43  O   VAL A   2     -59.256 -45.628  41.292  0.00  0.00    -0.273 OA
ATOM     44  N   LEU A   3     -59.437 -45.563  39.050  0.00  0.00    -0.297 N 
ATOM     45  H   LEU A   3     -60.073 -45.548  38.227  0.00  0.00    +0.150 HD
BRANCH  42  46
ATOM     46  CA  VAL A   2     -61.460 -45.465  40.375  0.00  0.00    +0.148 C 
BRANCH  46  48
ATOM     47  C   GLU A   1     -62.663 -47.539  40.761  0.00  0.00    +0.238 C 
ATOM     48  N   VAL A   2     -61.910 -46.550  41.229  0.00  0.00    -0.297 N 
ATOM     49  H   VAL A   2     -61.636 -46.553  42.232  0.00  0.00    +0.150 HD
ATOM     50  O   GLU A   1     -63.084 -47.564  39.609  0.00  0.00    -0.274 OA
BRANCH  47  51
ATOM     51  CA  GLU A   1     -63.007 -48.667  41.743  0.00  0.00    +0.145 C 
BRANCH  51  52
ATOM     52  N   GLU A   1     -64.432 -48.969  41.664  0.00  0.00    -0.238 NA
ATOM     53  H   GLU A   1     -64.761 -49.864  41.248  0.00  0.00    +0.142 HD
ENDBRANCH  51  52
BRANCH  51  54
ATOM     54  CB  GLU A   1     -62.144 -49.891  41.437  0.00  0.00    +0.038 C 
BRANCH  54  55
ATOM     55  CG  GLU A   1     -60.669 -49.649  41.765  0.00  0.00    +0.116 C 
BRANCH  55  56
ATOM     56  CD  GLU A   1     -59.741 -50.726  41.211  0.00  0.00    +0.365 C 
ATOM     57  OE2 GLU A   1     -58.506 -50.544  41.326  0.00  0.00    -0.246 OA
ATOM     58  OE1 GLU A   1     -60.241 -51.744  40.660  0.00  0.00    -0.246 OA
ENDBRANCH  55  56
ENDBRANCH  54  55
ENDBRANCH  51  54
ENDBRANCH  47  51
ENDBRANCH  46  48
BRANCH  46  59
ATOM     59  CB  VAL A   2     -61.839 -44.088  40.950  0.00  0.00    +0.027 C 
ATOM     60  CG2 VAL A   2     -63.342 -43.984  41.182  0.00  0.00    +0.002 C 
ATOM     61  CG1 VAL A   2     -61.345 -42.983  40.030  0.00  0.00    +0.002 C 
ENDBRANCH  46  59
ENDBRANCH  42  46
ENDBRANCH  41  44
BRANCH  41  62
ATOM     62  CB  LEU A   3     -57.603 -46.867  38.078  0.00  0.00    +0.029 C 
BRANCH  62  63
ATOM     63  CG  LEU A   3     -58.740 -47.790  37.634  0.00  0.00    +0.002 C 
ATOM     64  CD2 LEU A   3     -59.503 -48.320  38.838  0.00  0.00    +0.000 C 
ATOM     65  CD1 LEU A   3     -58.204 -48.934  36.788  0.00  0.00    +0.000 C 
ENDBRANCH  62  63
ENDBRANCH  41  62
ENDBRANCH  37  41
ENDBRANCH   1  38
BRANCH   1  66
ATOM     66  CB  TYR A   4     -56.165 -41.249  38.822  0.00  0.00    +0.055 C 
BRANCH  66  67
ATOM     67  CG  TYR A   4     -55.724 -40.005  38.084  0.00  0.00    -0.020 A 
ATOM     68  CD2 TYR A   4     -55.148 -38.940  38.763  0.00  0.00    -0.001 A 
ATOM     69  CE2 TYR A   4     -54.743 -37.800  38.094  0.00  0.00    +0.036 A 
ATOM     70  CZ  TYR A   4     -54.912 -37.716  36.728  0.00  0.00    +0.134 A 
ATOM     71  CE1 TYR A   4     -55.482 -38.761  36.031  0.00  0.00    +0.036 A 
ATOM     72  CD1 TYR A   4     -55.883 -39.896  36.709  0.00  0.00    -0.001 A 
BRANCH  70  73
ATOM     73  OH  TYR A   4     -54.511 -36.584  36.057  0.00  0.00    -0.506 OA
ATOM     74  HH  TYR A   4     -54.703 -36.689  35.091  0.00  0.00    +0.292 HD
ENDBRANCH  70  73
ENDBRANCH  66  67
ENDBRANCH   1  66
TORSDOF 31
REMARK  Name = ../refined-set-2016/4qac/4qac_pocket.pdb
REMARK  222 active torsions:
REMARK  status: ('A' for Active; 'I' for Inactive)
REMARK    1  A    between atoms: _1  and  _3
REMARK    2  A    between atoms: _3  and  _4
REMARK    3  A    between atoms: _3  and  _6
REMARK    4  A    between atoms: _6  and  _7
REMARK    5  A    between atoms: _10  and  _12
REMARK    6  A    between atoms: _12  and  _13
REMARK    7  A    between atoms: _12  and  _15
REMARK    8  A    between atoms: _15  and  _16
REMARK    9  A    between atoms: _19  and  _21
REMARK   10  A    between atoms: _21  and  _22
REMARK   11  A    between atoms: _25  and  _27
REMARK   12  A    between atoms: _27  and  _28
REMARK   13  A    between atoms: _31  and  _33
REMARK   14  A    between atoms: _33  and  _34
REMARK   15  A    between atoms: _33  and  _36
REMARK   16  A    between atoms: _36  and  _37
REMARK   17  A    between atoms: _42  and  _43
REMARK   18  A    between atoms: _45  and  _47
REMARK   19  A    between atoms: _47  and  _48
REMARK   20  A    between atoms: _47  and  _50
REMARK   21  A    between atoms: _50  and  _51
REMARK   22  A    between atoms: _56  and  _58
REMARK   23  A    between atoms: _58  and  _59
REMARK   24  A    between atoms: _62  and  _64
REMARK   25  A    between atoms: _64  and  _65
REMARK   26  A    between atoms: _64  and  _67
REMARK   27  A    between atoms: _67  and  _68
REMARK   28  A    between atoms: _68  and  _69
REMARK   29  A    between atoms: _69  and  _70
REMARK   30  A    between atoms: _70  and  _71
REMARK   31  A    between atoms: _75  and  _77
REMARK   32  A    between atoms: _77  and  _78
REMARK   33  A    between atoms: _77  and  _80
REMARK   34  A    between atoms: _80  and  _81
REMARK   35  A    between atoms: _84  and  _86
REMARK   36  A    between atoms: _86  and  _87
REMARK   37  A    between atoms: _89  and  _91
REMARK   38  A    between atoms: _91  and  _92
REMARK   39  A    between atoms: _91  and  _94
REMARK   40  A    between atoms: _94  and  _95
REMARK   41  A    between atoms: _97  and  _99
REMARK   42  A    between atoms: _99  and  _100
REMARK   43  A    between atoms: _99  and  _102
REMARK   44  A    between atoms: _102  and  _103
REMARK   45  A    between atoms: _113  and  _115
REMARK   46  A    between atoms: _115  and  _116
REMARK   47  A    between atoms: _115  and  _118
REMARK   48  A    between atoms: _118  and  _119
REMARK   49  A    between atoms: _122  and  _124
REMARK   50  A    between atoms: _124  and  _125
REMARK   51  A    between atoms: _124  and  _127
REMARK   52  A    between atoms: _127  and  _128
REMARK   53  A    between atoms: _133  and  _135
REMARK   54  A    between atoms: _135  and  _136
REMARK   55  A    between atoms: _135  and  _138
REMARK   56  A    between atoms: _138  and  _139
REMARK   57  A    between atoms: _144  and  _146
REMARK   58  A    between atoms: _146  and  _147
REMARK   59  A    between atoms: _146  and  _149
REMARK   60  A    between atoms: _152  and  _154
REMARK   61  A    between atoms: _154  and  _155
REMARK   62  A    between atoms: _154  and  _157
REMARK   63  A    between atoms: _157  and  _158
REMARK   64  A    between atoms: _161  and  _163
REMARK   65  A    between atoms: _163  and  _164
REMARK   66  A    between atoms: _163  and  _166
REMARK   67  A    between atoms: _166  and  _167
REMARK   68  A    between atoms: _172  and  _173
REMARK   69  A    between atoms: _175  and  _177
REMARK   70  A    between atoms: _177  and  _178
REMARK   71  A    between atoms: _177  and  _180
REMARK   72  A    between atoms: _180  and  _181
REMARK   73  A    between atoms: _183  and  _185
REMARK   74  A    between atoms: _192  and  _193
REMARK   75  A    between atoms: _197  and  _199
REMARK   76  A    between atoms: _199  and  _200
REMARK   77  A    between atoms: _199  and  _202
REMARK   78  A    between atoms: _202  and  _203
REMARK   79  A    between atoms: _203  and  _204
REMARK   80  A    between atoms: _207  and  _209
REMARK   81  A    between atoms: _209  and  _210
REMARK   82  A    between atoms: _213  and  _215
REMARK   83  A    between atoms: _215  and  _216
REMARK   84  A    between atoms: _215  and  _218
REMARK   85  A    between atoms: _218  and  _219
REMARK   86  A    between atoms: _224  and  _225
REMARK   87  A    between atoms: _227  and  _229
REMARK   88  A    between atoms: _229  and  _230
REMARK   89  A    between atoms: _229  and  _232
REMARK   90  A    between atoms: _232  and  _233
REMARK   91  A    between atoms: _233  and  _234
REMARK   92  A    between atoms: _237  and  _239
REMARK   93  A    between atoms: _239  and  _240
REMARK   94  A    between atoms: _239  and  _242
REMARK   95  A    between atoms: _242  and  _243
REMARK   96  A    between atoms: _246  and  _248
REMARK   97  A    between atoms: _248  and  _249
REMARK   98  A    between atoms: _248  and  _251
REMARK   99  A    between atoms: _251  and  _252
REMARK  100  A    between atoms: _252  and  _253
REMARK  101  A    between atoms: _253  and  _254
REMARK  102  A    between atoms: _254  and  _255
REMARK  103  A    between atoms: _259  and  _261
REMARK  104  A    between atoms: _261  and  _262
REMARK  105  A    between atoms: _261  and  _264
REMARK  106  A    between atoms: _264  and  _265
REMARK  107  A    between atoms: _271  and  _273
REMARK  108  A    between atoms: _273  and  _274
REMARK  109  A    between atoms: _273  and  _276
REMARK  110  A    between atoms: _276  and  _277
REMARK  111  A    between atoms: _280  and  _282
REMARK  112  A    between atoms: _282  and  _283
REMARK  113  A    between atoms: _282  and  _285
REMARK  114  A    between atoms: _288  and  _290
REMARK  115  A    between atoms: _290  and  _291
REMARK  116  A    between atoms: _290  and  _293
REMARK  117  A    between atoms: _293  and  _294
REMARK  118  A    between atoms: _300  and  _302
REMARK  119  A    between atoms: _302  and  _303
REMARK  120  A    between atoms: _302  and  _305
REMARK  121  A    between atoms: _305  and  _306
REMARK  122  A    between atoms: _316  and  _318
REMARK  123  A    between atoms: _318  and  _319
REMARK  124  A    between atoms: _318  and  _321
REMARK  125  A    between atoms: _321  and  _322
REMARK  126  A    between atoms: _322  and  _323
REMARK  127  A    between atoms: _328  and  _330
REMARK  128  A    between atoms: _330  and  _331
REMARK  129  A    between atoms: _330  and  _333
REMARK  130  A    between atoms: _333  and  _334
REMARK  131  A    between atoms: _334  and  _335
REMARK  132  A    between atoms: _340  and  _342
REMARK  133  A    between atoms: _342  and  _343
REMARK  134  A    between atoms: _342  and  _345
REMARK  135  A    between atoms: _345  and  _346
REMARK  136  A    between atoms: _349  and  _351
REMARK  137  A    between atoms: _351  and  _352
REMARK  138  A    between atoms: _351  and  _354
REMARK  139  A    between atoms: _354  and  _355
REMARK  140  A    between atoms: _358  and  _360
REMARK  141  A    between atoms: _360  and  _361
REMARK  142  A    between atoms: _360  and  _363
REMARK  143  A    between atoms: _363  and  _364
REMARK  144  A    between atoms: _364  and  _365
REMARK  145  A    between atoms: _370  and  _372
REMARK  146  A    between atoms: _372  and  _373
REMARK  147  A    between atoms: _372  and  _375
REMARK  148  A    between atoms: _378  and  _380
REMARK  149  A    between atoms: _380  and  _381
REMARK  150  A    between atoms: _380  and  _383
REMARK  151  A    between atoms: _383  and  _384
REMARK  152  A    between atoms: _386  and  _388
REMARK  153  A    between atoms: _388  and  _389
REMARK  154  A    between atoms: _388  and  _391
REMARK  155  A    between atoms: _394  and  _396
REMARK  156  A    between atoms: _396  and  _397
REMARK  157  A    between atoms: _396  and  _399
REMARK  158  A    between atoms: _399  and  _400
REMARK  159  A    between atoms: _404  and  _405
REMARK  160  A    between atoms: _410  and  _412
REMARK  161  A    between atoms: _412  and  _413
REMARK  162  A    between atoms: _412  and  _415
REMARK  163  A    between atoms: _415  and  _416
REMARK  164  A    between atoms: _419  and  _421
REMARK  165  A    between atoms: _421  and  _422
REMARK  166  A    between atoms: _425  and  _427
REMARK  167  A    between atoms: _427  and  _428
REMARK  168  A    between atoms: _427  and  _430
REMARK  169  A    between atoms: _430  and  _431
REMARK  170  A    between atoms: _431  and  _432
REMARK  171  A    between atoms: _432  and  _433
REMARK  172  A    between atoms: _442  and  _444
REMARK  173  A    between atoms: _444  and  _445
REMARK  174  A    between atoms: _444  and  _447
REMARK  175  A    between atoms: _450  and  _452
REMARK  176  A    between atoms: _452  and  _453
REMARK  177  A    between atoms: _452  and  _455
REMARK  178  A    between atoms: _458  and  _460
REMARK  179  A    between atoms: _460  and  _461
REMARK  180  A    between atoms: _460  and  _463
REMARK  181  A    between atoms: _463  and  _464
REMARK  182  A    between atoms: _464  and  _465
REMARK  183  A    between atoms: _468  and  _470
REMARK  184  A    between atoms: _470  and  _471
REMARK  185  A    between atoms: _470  and  _473
REMARK  186  A    between atoms: _476  and  _478
REMARK  187  A    between atoms: _478  and  _479
REMARK  188  A    between atoms: _478  and  _481
REMARK  189  A    between atoms: _481  and  _482
REMARK  190  A    between atoms: _485  and  _487
REMARK  191  A    between atoms: _487  and  _488
REMARK  192  A    between atoms: _487  and  _490
REMARK  193  A    between atoms: _490  and  _491
REMARK  194  A    between atoms: _496  and  _497
REMARK  195  A    between atoms: _499  and  _501
REMARK  196  A    between atoms: _501  and  _502
REMARK  197  A    between atoms: _501  and  _504
REMARK  198  A    between atoms: _504  and  _505
REMARK  199  A    between atoms: _505  and  _506
REMARK  200  A    between atoms: _509  and  _510
REMARK  201  A    between atoms: _515  and  _517
REMARK  202  A    between atoms: _517  and  _518
REMARK  203  A    between atoms: _517  and  _520
REMARK  204  A    between atoms: _520  and  _521
REMARK  205  A    between atoms: _523  and  _525
REMARK  206  A    between atoms: _525  and  _526
REMARK  207  A    between atoms: _525  and  _528
REMARK  208  A    between atoms: _528  and  _529
REMARK  209  A    between atoms: _532  and  _534
REMARK  210  A    between atoms: _534  and  _535
REMARK  211  A    between atoms: _534  and  _537
REMARK  212  A    between atoms: _537  and  _538
REMARK  213  A    between atoms: _538  and  _539
REMARK  214  A    between atoms: _542  and  _544
REMARK  215  A    between atoms: _544  and  _545
REMARK  216  A    between atoms: _544  and  _547
REMARK  217  A    between atoms: _547  and  _548
REMARK  218  A    between atoms: _553  and  _554
REMARK  219  A    between atoms: _556  and  _558
REMARK  220  A    between atoms: _558  and  _559
REMARK  221  A    between atoms: _558  and  _561
REMARK  222  A    between atoms: _561  and  _562
REMARK                            x       y       z     vdW  Elec       q    Type
REMARK                         _______ _______ _______ _____ _____    ______ ____
ROOT
ATOM      1  CA  TYR A   2     -41.093 -48.931  32.647  0.00  0.00    +0.153 C 
ENDROOT
BRANCH   1   3
ATOM      2  C   GLU A   1     -40.424 -51.238  32.982  0.00  0.00    +0.238 C 
ATOM      3  N   TYR A   2     -40.707 -50.049  33.505  0.00  0.00    -0.297 N 
ATOM      4  H   TYR A   2     -40.653 -49.913  34.535  0.00  0.00    +0.150 HD
ATOM      5  O   GLU A   1     -40.424 -51.440  31.772  0.00  0.00    -0.274 OA
BRANCH   2   6
ATOM      6  CA  GLU A   1     -40.081 -52.363  33.965  0.00  0.00    +0.145 C 
BRANCH   6   7
ATOM      7  N   GLU A   1     -39.260 -51.908  35.094  0.00  0.00    -0.238 NA
ATOM      8  H   GLU A   1     -39.589 -52.051  36.070  0.00  0.00    +0.142 HD
ENDBRANCH   6   7
BRANCH   6   9
ATOM      9  CB  GLU A   1     -41.377 -53.051  34.417  0.00  0.00    +0.038 C 
BRANCH   9  10
ATOM     10  CG  GLU A   1     -42.287 -53.349  33.222  0.00  0.00    +0.116 C 
BRANCH  10  11
ATOM     11  CD  GLU A   1     -43.620 -53.969  33.583  0.00  0.00    +0.365 C 
ATOM     12  OE2 GLU A   1     -43.905 -54.139  34.792  0.00  0.00    -0.246 OA
ATOM     13  OE1 GLU A   1     -44.388 -54.282  32.637  0.00  0.00    -0.246 OA
ENDBRANCH  10  11
ENDBRANCH   9  10
ENDBRANCH   6   9
ENDBRANCH   2   6
ENDBRANCH   1   3
BRANCH   1  14
ATOM     14  C   TYR A   2     -39.974 -47.907  32.498  0.00  0.00    +0.241 C 
ATOM     15  N   PHE A   3     -38.837 -48.205  33.112  0.00  0.00    -0.298 N 
ATOM     16  H   PHE A   3     -38.751 -49.122  33.595  0.00  0.00    +0.150 HD
ATOM     17  O   TYR A   2     -40.133 -46.881  31.841  0.00  0.00    -0.273 OA
BRANCH  15  18
ATOM     18  CA  PHE A   3     -37.709 -47.292  33.132  0.00  0.00    +0.141 C 
BRANCH  18  19
ATOM     19  C   PHE A   3     -36.974 -47.242  31.792  0.00  0.00    +0.227 C 
ATOM     20  O   PHE A   3     -36.782 -48.271  31.133  0.00  0.00    -0.286 OA
ENDBRANCH  18  19
BRANCH  18  21
ATOM     21  CB  PHE A   3     -36.746 -47.689  34.248  0.00  0.00    +0.054 C 
BRANCH  21  22
ATOM     22  CG  PHE A   3     -35.738 -46.634  34.571  0.00  0.00    -0.020 A 
ATOM     23  CD2 PHE A   3     -36.126 -45.466  35.214  0.00  0.00    -0.004 A 
ATOM     24  CE2 PHE A   3     -35.194 -44.478  35.530  0.00  0.00    -0.000 A 
ATOM     25  CZ  PHE A   3     -33.859 -44.654  35.186  0.00  0.00    -0.000 A 
ATOM     26  CE1 PHE A   3     -33.462 -45.822  34.533  0.00  0.00    -0.000 A 
ATOM     27  CD1 PHE A   3     -34.402 -46.803  34.231  0.00  0.00    -0.004 A 
ENDBRANCH  21  22
ENDBRANCH  18  21
ENDBRANCH  15  18
ENDBRANCH   1  14
BRANCH   1  28
ATOM     28  CB  TYR A   2     -42.358 -48.266  33.191  0.00  0.00    +0.055 C 
BRANCH  28  29
ATOM     29  CG  TYR A   2     -43.466 -49.244  33.488  0.00  0.00    -0.020 A 
ATOM     30  CD2 TYR A   2     -43.871 -49.483  34.788  0.00  0.00    -0.001 A 
ATOM     31  CE2 TYR A   2     -44.879 -50.373  35.068  0.00  0.00    +0.036 A 
ATOM     32  CZ  TYR A   2     -45.504 -51.043  34.043  0.00  0.00    +0.134 A 
ATOM     33  CE1 TYR A   2     -45.121 -50.829  32.742  0.00  0.00    +0.036 A 
ATOM     34  CD1 TYR A   2     -44.101 -49.930  32.469  0.00  0.00    -0.001 A 
BRANCH  32  35
ATOM     35  OH  TYR A   2     -46.524 -51.929  34.327  0.00  0.00    -0.506 OA
ATOM     36  HH  TYR A   2     -46.181 -52.649  34.914  0.00  0.00    +0.292 HD
ENDBRANCH  32  35
ENDBRANCH  28  29
ENDBRANCH   1  28
TORSDOF 14
REMARK  Name = ../refined-set-2016/4qac/4qac_pocket.pdb
REMARK  222 active torsions:
REMARK  status: ('A' for Active; 'I' for Inactive)
REMARK    1  A    between atoms: _1  and  _3
REMARK    2  A    between atoms: _3  and  _4
REMARK    3  A    between atoms: _3  and  _6
REMARK    4  A    between atoms: _6  and  _7
REMARK    5  A    between atoms: _10  and  _12
REMARK    6  A    between atoms: _12  and  _13
REMARK    7  A    between atoms: _12  and  _15
REMARK    8  A    between atoms: _15  and  _16
REMARK    9  A    between atoms: _19  and  _21
REMARK   10  A    between atoms: _21  and  _22
REMARK   11  A    between atoms: _25  and  _27
REMARK   12  A    between atoms: _27  and  _28
REMARK   13  A    between atoms: _31  and  _33
REMARK   14  A    between atoms: _33  and  _34
REMARK   15  A    between atoms: _33  and  _36
REMARK   16  A    between atoms: _36  and  _37
REMARK   17  A    between atoms: _42  and  _43
REMARK   18  A    between atoms: _45  and  _47
REMARK   19  A    between atoms: _47  and  _48
REMARK   20  A    between atoms: _47  and  _50
REMARK   21  A    between atoms: _50  and  _51
REMARK   22  A    between atoms: _56  and  _58
REMARK   23  A    between atoms: _58  and  _59
REMARK   24  A    between atoms: _62  and  _64
REMARK   25  A    between atoms: _64  and  _65
REMARK   26  A    between atoms: _64  and  _67
REMARK   27  A    between atoms: _67  and  _68
REMARK   28  A    between atoms: _68  and  _69
REMARK   29  A    between atoms: _69  and  _70
REMARK   30  A    between atoms: _70  and  _71
REMARK   31  A    between atoms: _75  and  _77
REMARK   32  A    between atoms: _77  and  _78
REMARK   33  A    between atoms: _77  and  _80
REMARK   34  A    between atoms: _80  and  _81
REMARK   35  A    between atoms: _84  and  _86
REMARK   36  A    between atoms: _86  and  _87
REMARK   37  A    between atoms: _89  and  _91
REMARK   38  A    between atoms: _91  and  _92
REMARK   39  A    between atoms: _91  and  _94
REMARK   40  A    between atoms: _94  and  _95
REMARK   41  A    between atoms: _97  and  _99
REMARK   42  A    between atoms: _99  and  _100
REMARK   43  A    between atoms: _99  and  _102
REMARK   44  A    between atoms: _102  and  _103
REMARK   45  A    between atoms: _113  and  _115
REMARK   46  A    between atoms: _115  and  _116
REMARK   47  A    between atoms: _115  and  _118
REMARK   48  A    between atoms: _118  and  _119
REMARK   49  A    between atoms: _122  and  _124
REMARK   50  A    between atoms: _124  and  _125
REMARK   51  A    between atoms: _124  and  _127
REMARK   52  A    between atoms: _127  and  _128
REMARK   53  A    between atoms: _133  and  _135
REMARK   54  A    between atoms: _135  and  _136
REMARK   55  A    between atoms: _135  and  _138
REMARK   56  A    between atoms: _138  and  _139
REMARK   57  A    between atoms: _144  and  _146
REMARK   58  A    between atoms: _146  and  _147
REMARK   59  A    between atoms: _146  and  _149
REMARK   60  A    between atoms: _152  and  _154
REMARK   61  A    between atoms: _154  and  _155
REMARK   62  A    between atoms: _154  and  _157
REMARK   63  A    between atoms: _157  and  _158
REMARK   64  A    between atoms: _161  and  _163
REMARK   65  A    between atoms: _163  and  _164
REMARK   66  A    between atoms: _163  and  _166
REMARK   67  A    between atoms: _166  and  _167
REMARK   68  A    between atoms: _172  and  _173
REMARK   69  A    between atoms: _175  and  _177
REMARK   70  A    between atoms: _177  and  _178
REMARK   71  A    between atoms: _177  and  _180
REMARK   72  A    between atoms: _180  and  _181
REMARK   73  A    between atoms: _183  and  _185
REMARK   74  A    between atoms: _192  and  _193
REMARK   75  A    between atoms: _197  and  _199
REMARK   76  A    between atoms: _199  and  _200
REMARK   77  A    between atoms: _199  and  _202
REMARK   78  A    between atoms: _202  and  _203
REMARK   79  A    between atoms: _203  and  _204
REMARK   80  A    between atoms: _207  and  _209
REMARK   81  A    between atoms: _209  and  _210
REMARK   82  A    between atoms: _213  and  _215
REMARK   83  A    between atoms: _215  and  _216
REMARK   84  A    between atoms: _215  and  _218
REMARK   85  A    between atoms: _218  and  _219
REMARK   86  A    between atoms: _224  and  _225
REMARK   87  A    between atoms: _227  and  _229
REMARK   88  A    between atoms: _229  and  _230
REMARK   89  A    between atoms: _229  and  _232
REMARK   90  A    between atoms: _232  and  _233
REMARK   91  A    between atoms: _233  and  _234
REMARK   92  A    between atoms: _237  and  _239
REMARK   93  A    between atoms: _239  and  _240
REMARK   94  A    between atoms: _239  and  _242
REMARK   95  A    between atoms: _242  and  _243
REMARK   96  A    between atoms: _246  and  _248
REMARK   97  A    between atoms: _248  and  _249
REMARK   98  A    between atoms: _248  and  _251
REMARK   99  A    between atoms: _251  and  _252
REMARK  100  A    between atoms: _252  and  _253
REMARK  101  A    between atoms: _253  and  _254
REMARK  102  A    between atoms: _254  and  _255
REMARK  103  A    between atoms: _259  and  _261
REMARK  104  A    between atoms: _261  and  _262
REMARK  105  A    between atoms: _261  and  _264
REMARK  106  A    between atoms: _264  and  _265
REMARK  107  A    between atoms: _271  and  _273
REMARK  108  A    between atoms: _273  and  _274
REMARK  109  A    between atoms: _273  and  _276
REMARK  110  A    between atoms: _276  and  _277
REMARK  111  A    between atoms: _280  and  _282
REMARK  112  A    between atoms: _282  and  _283
REMARK  113  A    between atoms: _282  and  _285
REMARK  114  A    between atoms: _288  and  _290
REMARK  115  A    between atoms: _290  and  _291
REMARK  116  A    between atoms: _290  and  _293
REMARK  117  A    between atoms: _293  and  _294
REMARK  118  A    between atoms: _300  and  _302
REMARK  119  A    between atoms: _302  and  _303
REMARK  120  A    between atoms: _302  and  _305
REMARK  121  A    between atoms: _305  and  _306
REMARK  122  A    between atoms: _316  and  _318
REMARK  123  A    between atoms: _318  and  _319
REMARK  124  A    between atoms: _318  and  _321
REMARK  125  A    between atoms: _321  and  _322
REMARK  126  A    between atoms: _322  and  _323
REMARK  127  A    between atoms: _328  and  _330
REMARK  128  A    between atoms: _330  and  _331
REMARK  129  A    between atoms: _330  and  _333
REMARK  130  A    between atoms: _333  and  _334
REMARK  131  A    between atoms: _334  and  _335
REMARK  132  A    between atoms: _340  and  _342
REMARK  133  A    between atoms: _342  and  _343
REMARK  134  A    between atoms: _342  and  _345
REMARK  135  A    between atoms: _345  and  _346
REMARK  136  A    between atoms: _349  and  _351
REMARK  137  A    between atoms: _351  and  _352
REMARK  138  A    between atoms: _351  and  _354
REMARK  139  A    between atoms: _354  and  _355
REMARK  140  A    between atoms: _358  and  _360
REMARK  141  A    between atoms: _360  and  _361
REMARK  142  A    between atoms: _360  and  _363
REMARK  143  A    between atoms: _363  and  _364
REMARK  144  A    between atoms: _364  and  _365
REMARK  145  A    between atoms: _370  and  _372
REMARK  146  A    between atoms: _372  and  _373
REMARK  147  A    between atoms: _372  and  _375
REMARK  148  A    between atoms: _378  and  _380
REMARK  149  A    between atoms: _380  and  _381
REMARK  150  A    between atoms: _380  and  _383
REMARK  151  A    between atoms: _383  and  _384
REMARK  152  A    between atoms: _386  and  _388
REMARK  153  A    between atoms: _388  and  _389
REMARK  154  A    between atoms: _388  and  _391
REMARK  155  A    between atoms: _394  and  _396
REMARK  156  A    between atoms: _396  and  _397
REMARK  157  A    between atoms: _396  and  _399
REMARK  158  A    between atoms: _399  and  _400
REMARK  159  A    between atoms: _404  and  _405
REMARK  160  A    between atoms: _410  and  _412
REMARK  161  A    between atoms: _412  and  _413
REMARK  162  A    between atoms: _412  and  _415
REMARK  163  A    between atoms: _415  and  _416
REMARK  164  A    between atoms: _419  and  _421
REMARK  165  A    between atoms: _421  and  _422
REMARK  166  A    between atoms: _425  and  _427
REMARK  167  A    between atoms: _427  and  _428
REMARK  168  A    between atoms: _427  and  _430
REMARK  169  A    between atoms: _430  and  _431
REMARK  170  A    between atoms: _431  and  _432
REMARK  171  A    between atoms: _432  and  _433
REMARK  172  A    between atoms: _442  and  _444
REMARK  173  A    between atoms: _444  and  _445
REMARK  174  A    between atoms: _444  and  _447
REMARK  175  A    between atoms: _450  and  _452
REMARK  176  A    between atoms: _452  and  _453
REMARK  177  A    between atoms: _452  and  _455
REMARK  178  A    between atoms: _458  and  _460
REMARK  179  A    between atoms: _460  and  _461
REMARK  180  A    between atoms: _460  and  _463
REMARK  181  A    between atoms: _463  and  _464
REMARK  182  A    between atoms: _464  and  _465
REMARK  183  A    between atoms: _468  and  _470
REMARK  184  A    between atoms: _470  and  _471
REMARK  185  A    between atoms: _470  and  _473
REMARK  186  A    between atoms: _476  and  _478
REMARK  187  A    between atoms: _478  and  _479
REMARK  188  A    between atoms: _478  and  _481
REMARK  189  A    between atoms: _481  and  _482
REMARK  190  A    between atoms: _485  and  _487
REMARK  191  A    between atoms: _487  and  _488
REMARK  192  A    between atoms: _487  and  _490
REMARK  193  A    between atoms: _490  and  _491
REMARK  194  A    between atoms: _496  and  _497
REMARK  195  A    between atoms: _499  and  _501
REMARK  196  A    between atoms: _501  and  _502
REMARK  197  A    between atoms: _501  and  _504
REMARK  198  A    between atoms: _504  and  _505
REMARK  199  A    between atoms: _505  and  _506
REMARK  200  A    between atoms: _509  and  _510
REMARK  201  A    between atoms: _515  and  _517
REMARK  202  A    between atoms: _517  and  _518
REMARK  203  A    between atoms: _517  and  _520
REMARK  204  A    between atoms: _520  and  _521
REMARK  205  A    between atoms: _523  and  _525
REMARK  206  A    between atoms: _525  and  _526
REMARK  207  A    between atoms: _525  and  _528
REMARK  208  A    between atoms: _528  and  _529
REMARK  209  A    between atoms: _532  and  _534
REMARK  210  A    between atoms: _534  and  _535
REMARK  211  A    between atoms: _534  and  _537
REMARK  212  A    between atoms: _537  and  _538
REMARK  213  A    between atoms: _538  and  _539
REMARK  214  A    between atoms: _542  and  _544
REMARK  215  A    between atoms: _544  and  _545
REMARK  216  A    between atoms: _544  and  _547
REMARK  217  A    between atoms: _547  and  _548
REMARK  218  A    between atoms: _553  and  _554
REMARK  219  A    between atoms: _556  and  _558
REMARK  220  A    between atoms: _558  and  _559
REMARK  221  A    between atoms: _558  and  _561
REMARK  222  A    between atoms: _561  and  _562
REMARK                            x       y       z     vdW  Elec       q    Type
REMARK                         _______ _______ _______ _____ _____    ______ ____
ROOT
ATOM      1  O   HOH     1     -48.582 -49.768  23.971  0.00  0.00    +0.000 OA
ENDROOT
TORSDOF 0
REMARK  Name = ../refined-set-2016/4qac/4qac_pocket.pdb
REMARK  222 active torsions:
REMARK  status: ('A' for Active; 'I' for Inactive)
REMARK    1  A    between atoms: _1  and  _3
REMARK    2  A    between atoms: _3  and  _4
REMARK    3  A    between atoms: _3  and  _6
REMARK    4  A    between atoms: _6  and  _7
REMARK    5  A    between atoms: _10  and  _12
REMARK    6  A    between atoms: _12  and  _13
REMARK    7  A    between atoms: _12  and  _15
REMARK    8  A    between atoms: _15  and  _16
REMARK    9  A    between atoms: _19  and  _21
REMARK   10  A    between atoms: _21  and  _22
REMARK   11  A    between atoms: _25  and  _27
REMARK   12  A    between atoms: _27  and  _28
REMARK   13  A    between atoms: _31  and  _33
REMARK   14  A    between atoms: _33  and  _34
REMARK   15  A    between atoms: _33  and  _36
REMARK   16  A    between atoms: _36  and  _37
REMARK   17  A    between atoms: _42  and  _43
REMARK   18  A    between atoms: _45  and  _47
REMARK   19  A    between atoms: _47  and  _48
REMARK   20  A    between atoms: _47  and  _50
REMARK   21  A    between atoms: _50  and  _51
REMARK   22  A    between atoms: _56  and  _58
REMARK   23  A    between atoms: _58  and  _59
REMARK   24  A    between atoms: _62  and  _64
REMARK   25  A    between atoms: _64  and  _65
REMARK   26  A    between atoms: _64  and  _67
REMARK   27  A    between atoms: _67  and  _68
REMARK   28  A    between atoms: _68  and  _69
REMARK   29  A    between atoms: _69  and  _70
REMARK   30  A    between atoms: _70  and  _71
REMARK   31  A    between atoms: _75  and  _77
REMARK   32  A    between atoms: _77  and  _78
REMARK   33  A    between atoms: _77  and  _80
REMARK   34  A    between atoms: _80  and  _81
REMARK   35  A    between atoms: _84  and  _86
REMARK   36  A    between atoms: _86  and  _87
REMARK   37  A    between atoms: _89  and  _91
REMARK   38  A    between atoms: _91  and  _92
REMARK   39  A    between atoms: _91  and  _94
REMARK   40  A    between atoms: _94  and  _95
REMARK   41  A    between atoms: _97  and  _99
REMARK   42  A    between atoms: _99  and  _100
REMARK   43  A    between atoms: _99  and  _102
REMARK   44  A    between atoms: _102  and  _103
REMARK   45  A    between atoms: _113  and  _115
REMARK   46  A    between atoms: _115  and  _116
REMARK   47  A    between atoms: _115  and  _118
REMARK   48  A    between atoms: _118  and  _119
REMARK   49  A    between atoms: _122  and  _124
REMARK   50  A    between atoms: _124  and  _125
REMARK   51  A    between atoms: _124  and  _127
REMARK   52  A    between atoms: _127  and  _128
REMARK   53  A    between atoms: _133  and  _135
REMARK   54  A    between atoms: _135  and  _136
REMARK   55  A    between atoms: _135  and  _138
REMARK   56  A    between atoms: _138  and  _139
REMARK   57  A    between atoms: _144  and  _146
REMARK   58  A    between atoms: _146  and  _147
REMARK   59  A    between atoms: _146  and  _149
REMARK   60  A    between atoms: _152  and  _154
REMARK   61  A    between atoms: _154  and  _155
REMARK   62  A    between atoms: _154  and  _157
REMARK   63  A    between atoms: _157  and  _158
REMARK   64  A    between atoms: _161  and  _163
REMARK   65  A    between atoms: _163  and  _164
REMARK   66  A    between atoms: _163  and  _166
REMARK   67  A    between atoms: _166  and  _167
REMARK   68  A    between atoms: _172  and  _173
REMARK   69  A    between atoms: _175  and  _177
REMARK   70  A    between atoms: _177  and  _178
REMARK   71  A    between atoms: _177  and  _180
REMARK   72  A    between atoms: _180  and  _181
REMARK   73  A    between atoms: _183  and  _185
REMARK   74  A    between atoms: _192  and  _193
REMARK   75  A    between atoms: _197  and  _199
REMARK   76  A    between atoms: _199  and  _200
REMARK   77  A    between atoms: _199  and  _202
REMARK   78  A    between atoms: _202  and  _203
REMARK   79  A    between atoms: _203  and  _204
REMARK   80  A    between atoms: _207  and  _209
REMARK   81  A    between atoms: _209  and  _210
REMARK   82  A    between atoms: _213  and  _215
REMARK   83  A    between atoms: _215  and  _216
REMARK   84  A    between atoms: _215  and  _218
REMARK   85  A    between atoms: _218  and  _219
REMARK   86  A    between atoms: _224  and  _225
REMARK   87  A    between atoms: _227  and  _229
REMARK   88  A    between atoms: _229  and  _230
REMARK   89  A    between atoms: _229  and  _232
REMARK   90  A    between atoms: _232  and  _233
REMARK   91  A    between atoms: _233  and  _234
REMARK   92  A    between atoms: _237  and  _239
REMARK   93  A    between atoms: _239  and  _240
REMARK   94  A    between atoms: _239  and  _242
REMARK   95  A    between atoms: _242  and  _243
REMARK   96  A    between atoms: _246  and  _248
REMARK   97  A    between atoms: _248  and  _249
REMARK   98  A    between atoms: _248  and  _251
REMARK   99  A    between atoms: _251  and  _252
REMARK  100  A    between atoms: _252  and  _253
REMARK  101  A    between atoms: _253  and  _254
REMARK  102  A    between atoms: _254  and  _255
REMARK  103  A    between atoms: _259  and  _261
REMARK  104  A    between atoms: _261  and  _262
REMARK  105  A    between atoms: _261  and  _264
REMARK  106  A    between atoms: _264  and  _265
REMARK  107  A    between atoms: _271  and  _273
REMARK  108  A    between atoms: _273  and  _274
REMARK  109  A    between atoms: _273  and  _276
REMARK  110  A    between atoms: _276  and  _277
REMARK  111  A    between atoms: _280  and  _282
REMARK  112  A    between atoms: _282  and  _283
REMARK  113  A    between atoms: _282  and  _285
REMARK  114  A    between atoms: _288  and  _290
REMARK  115  A    between atoms: _290  and  _291
REMARK  116  A    between atoms: _290  and  _293
REMARK  117  A    between atoms: _293  and  _294
REMARK  118  A    between atoms: _300  and  _302
REMARK  119  A    between atoms: _302  and  _303
REMARK  120  A    between atoms: _302  and  _305
REMARK  121  A    between atoms: _305  and  _306
REMARK  122  A    between atoms: _316  and  _318
REMARK  123  A    between atoms: _318  and  _319
REMARK  124  A    between atoms: _318  and  _321
REMARK  125  A    between atoms: _321  and  _322
REMARK  126  A    between atoms: _322  and  _323
REMARK  127  A    between atoms: _328  and  _330
REMARK  128  A    between atoms: _330  and  _331
REMARK  129  A    between atoms: _330  and  _333
REMARK  130  A    between atoms: _333  and  _334
REMARK  131  A    between atoms: _334  and  _335
REMARK  132  A    between atoms: _340  and  _342
REMARK  133  A    between atoms: _342  and  _343
REMARK  134  A    between atoms: _342  and  _345
REMARK  135  A    between atoms: _345  and  _346
REMARK  136  A    between atoms: _349  and  _351
REMARK  137  A    between atoms: _351  and  _352
REMARK  138  A    between atoms: _351  and  _354
REMARK  139  A    between atoms: _354  and  _355
REMARK  140  A    between atoms: _358  and  _360
REMARK  141  A    between atoms: _360  and  _361
REMARK  142  A    between atoms: _360  and  _363
REMARK  143  A    between atoms: _363  and  _364
REMARK  144  A    between atoms: _364  and  _365
REMARK  145  A    between atoms: _370  and  _372
REMARK  146  A    between atoms: _372  and  _373
REMARK  147  A    between atoms: _372  and  _375
REMARK  148  A    between atoms: _378  and  _380
REMARK  149  A    between atoms: _380  and  _381
REMARK  150  A    between atoms: _380  and  _383
REMARK  151  A    between atoms: _383  and  _384
REMARK  152  A    between atoms: _386  and  _388
REMARK  153  A    between atoms: _388  and  _389
REMARK  154  A    between atoms: _388  and  _391
REMARK  155  A    between atoms: _394  and  _396
REMARK  156  A    between atoms: _396  and  _397
REMARK  157  A    between atoms: _396  and  _399
REMARK  158  A    between atoms: _399  and  _400
REMARK  159  A    between atoms: _404  and  _405
REMARK  160  A    between atoms: _410  and  _412
REMARK  161  A    between atoms: _412  and  _413
REMARK  162  A    between atoms: _412  and  _415
REMARK  163  A    between atoms: _415  and  _416
REMARK  164  A    between atoms: _419  and  _421
REMARK  165  A    between atoms: _421  and  _422
REMARK  166  A    between atoms: _425  and  _427
REMARK  167  A    between atoms: _427  and  _428
REMARK  168  A    between atoms: _427  and  _430
REMARK  169  A    between atoms: _430  and  _431
REMARK  170  A    between atoms: _431  and  _432
REMARK  171  A    between atoms: _432  and  _433
REMARK  172  A    between atoms: _442  and  _444
REMARK  173  A    between atoms: _444  and  _445
REMARK  174  A    between atoms: _444  and  _447
REMARK  175  A    between atoms: _450  and  _452
REMARK  176  A    between atoms: _452  and  _453
REMARK  177  A    between atoms: _452  and  _455
REMARK  178  A    between atoms: _458  and  _460
REMARK  179  A    between atoms: _460  and  _461
REMARK  180  A    between atoms: _460  and  _463
REMARK  181  A    between atoms: _463  and  _464
REMARK  182  A    between atoms: _464  and  _465
REMARK  183  A    between atoms: _468  and  _470
REMARK  184  A    between atoms: _470  and  _471
REMARK  185  A    between atoms: _470  and  _473
REMARK  186  A    between atoms: _476  and  _478
REMARK  187  A    between atoms: _478  and  _479
REMARK  188  A    between atoms: _478  and  _481
REMARK  189  A    between atoms: _481  and  _482
REMARK  190  A    between atoms: _485  and  _487
REMARK  191  A    between atoms: _487  and  _488
REMARK  192  A    between atoms: _487  and  _490
REMARK  193  A    between atoms: _490  and  _491
REMARK  194  A    between atoms: _496  and  _497
REMARK  195  A    between atoms: _499  and  _501
REMARK  196  A    between atoms: _501  and  _502
REMARK  197  A    between atoms: _501  and  _504
REMARK  198  A    between atoms: _504  and  _505
REMARK  199  A    between atoms: _505  and  _506
REMARK  200  A    between atoms: _509  and  _510
REMARK  201  A    between atoms: _515  and  _517
REMARK  202  A    between atoms: _517  and  _518
REMARK  203  A    between atoms: _517  and  _520
REMARK  204  A    between atoms: _520  and  _521
REMARK  205  A    between atoms: _523  and  _525
REMARK  206  A    between atoms: _525  and  _526
REMARK  207  A    between atoms: _525  and  _528
REMARK  208  A    between atoms: _528  and  _529
REMARK  209  A    between atoms: _532  and  _534
REMARK  210  A    between atoms: _534  and  _535
REMARK  211  A    between atoms: _534  and  _537
REMARK  212  A    between atoms: _537  and  _538
REMARK  213  A    between atoms: _538  and  _539
REMARK  214  A    between atoms: _542  and  _544
REMARK  215  A    between atoms: _544  and  _545
REMARK  216  A    between atoms: _544  and  _547
REMARK  217  A    between atoms: _547  and  _548
REMARK  218  A    between atoms: _553  and  _554
REMARK  219  A    between atoms: _556  and  _558
REMARK  220  A    between atoms: _558  and  _559
REMARK  221  A    between atoms: _558  and  _561
REMARK  222  A    between atoms: _561  and  _562
REMARK                            x       y       z     vdW  Elec       q    Type
REMARK                         _______ _______ _______ _____ _____    ______ ____
ROOT
ATOM      1  O   HOH     1     -41.539 -39.978  29.541  0.00  0.00    +0.000 OA
ENDROOT
TORSDOF 0
REMARK  Name = ../refined-set-2016/4qac/4qac_pocket.pdb
REMARK  222 active torsions:
REMARK  status: ('A' for Active; 'I' for Inactive)
REMARK    1  A    between atoms: _1  and  _3
REMARK    2  A    between atoms: _3  and  _4
REMARK    3  A    between atoms: _3  and  _6
REMARK    4  A    between atoms: _6  and  _7
REMARK    5  A    between atoms: _10  and  _12
REMARK    6  A    between atoms: _12  and  _13
REMARK    7  A    between atoms: _12  and  _15
REMARK    8  A    between atoms: _15  and  _16
REMARK    9  A    between atoms: _19  and  _21
REMARK   10  A    between atoms: _21  and  _22
REMARK   11  A    between atoms: _25  and  _27
REMARK   12  A    between atoms: _27  and  _28
REMARK   13  A    between atoms: _31  and  _33
REMARK   14  A    between atoms: _33  and  _34
REMARK   15  A    between atoms: _33  and  _36
REMARK   16  A    between atoms: _36  and  _37
REMARK   17  A    between atoms: _42  and  _43
REMARK   18  A    between atoms: _45  and  _47
REMARK   19  A    between atoms: _47  and  _48
REMARK   20  A    between atoms: _47  and  _50
REMARK   21  A    between atoms: _50  and  _51
REMARK   22  A    between atoms: _56  and  _58
REMARK   23  A    between atoms: _58  and  _59
REMARK   24  A    between atoms: _62  and  _64
REMARK   25  A    between atoms: _64  and  _65
REMARK   26  A    between atoms: _64  and  _67
REMARK   27  A    between atoms: _67  and  _68
REMARK   28  A    between atoms: _68  and  _69
REMARK   29  A    between atoms: _69  and  _70
REMARK   30  A    between atoms: _70  and  _71
REMARK   31  A    between atoms: _75  and  _77
REMARK   32  A    between atoms: _77  and  _78
REMARK   33  A    between atoms: _77  and  _80
REMARK   34  A    between atoms: _80  and  _81
REMARK   35  A    between atoms: _84  and  _86
REMARK   36  A    between atoms: _86  and  _87
REMARK   37  A    between atoms: _89  and  _91
REMARK   38  A    between atoms: _91  and  _92
REMARK   39  A    between atoms: _91  and  _94
REMARK   40  A    between atoms: _94  and  _95
REMARK   41  A    between atoms: _97  and  _99
REMARK   42  A    between atoms: _99  and  _100
REMARK   43  A    between atoms: _99  and  _102
REMARK   44  A    between atoms: _102  and  _103
REMARK   45  A    between atoms: _113  and  _115
REMARK   46  A    between atoms: _115  and  _116
REMARK   47  A    between atoms: _115  and  _118
REMARK   48  A    between atoms: _118  and  _119
REMARK   49  A    between atoms: _122  and  _124
REMARK   50  A    between atoms: _124  and  _125
REMARK   51  A    between atoms: _124  and  _127
REMARK   52  A    between atoms: _127  and  _128
REMARK   53  A    between atoms: _133  and  _135
REMARK   54  A    between atoms: _135  and  _136
REMARK   55  A    between atoms: _135  and  _138
REMARK   56  A    between atoms: _138  and  _139
REMARK   57  A    between atoms: _144  and  _146
REMARK   58  A    between atoms: _146  and  _147
REMARK   59  A    between atoms: _146  and  _149
REMARK   60  A    between atoms: _152  and  _154
REMARK   61  A    between atoms: _154  and  _155
REMARK   62  A    between atoms: _154  and  _157
REMARK   63  A    between atoms: _157  and  _158
REMARK   64  A    between atoms: _161  and  _163
REMARK   65  A    between atoms: _163  and  _164
REMARK   66  A    between atoms: _163  and  _166
REMARK   67  A    between atoms: _166  and  _167
REMARK   68  A    between atoms: _172  and  _173
REMARK   69  A    between atoms: _175  and  _177
REMARK   70  A    between atoms: _177  and  _178
REMARK   71  A    between atoms: _177  and  _180
REMARK   72  A    between atoms: _180  and  _181
REMARK   73  A    between atoms: _183  and  _185
REMARK   74  A    between atoms: _192  and  _193
REMARK   75  A    between atoms: _197  and  _199
REMARK   76  A    between atoms: _199  and  _200
REMARK   77  A    between atoms: _199  and  _202
REMARK   78  A    between atoms: _202  and  _203
REMARK   79  A    between atoms: _203  and  _204
REMARK   80  A    between atoms: _207  and  _209
REMARK   81  A    between atoms: _209  and  _210
REMARK   82  A    between atoms: _213  and  _215
REMARK   83  A    between atoms: _215  and  _216
REMARK   84  A    between atoms: _215  and  _218
REMARK   85  A    between atoms: _218  and  _219
REMARK   86  A    between atoms: _224  and  _225
REMARK   87  A    between atoms: _227  and  _229
REMARK   88  A    between atoms: _229  and  _230
REMARK   89  A    between atoms: _229  and  _232
REMARK   90  A    between atoms: _232  and  _233
REMARK   91  A    between atoms: _233  and  _234
REMARK   92  A    between atoms: _237  and  _239
REMARK   93  A    between atoms: _239  and  _240
REMARK   94  A    between atoms: _239  and  _242
REMARK   95  A    between atoms: _242  and  _243
REMARK   96  A    between atoms: _246  and  _248
REMARK   97  A    between atoms: _248  and  _249
REMARK   98  A    between atoms: _248  and  _251
REMARK   99  A    between atoms: _251  and  _252
REMARK  100  A    between atoms: _252  and  _253
REMARK  101  A    between atoms: _253  and  _254
REMARK  102  A    between atoms: _254  and  _255
REMARK  103  A    between atoms: _259  and  _261
REMARK  104  A    between atoms: _261  and  _262
REMARK  105  A    between atoms: _261  and  _264
REMARK  106  A    between atoms: _264  and  _265
REMARK  107  A    between atoms: _271  and  _273
REMARK  108  A    between atoms: _273  and  _274
REMARK  109  A    between atoms: _273  and  _276
REMARK  110  A    between atoms: _276  and  _277
REMARK  111  A    between atoms: _280  and  _282
REMARK  112  A    between atoms: _282  and  _283
REMARK  113  A    between atoms: _282  and  _285
REMARK  114  A    between atoms: _288  and  _290
REMARK  115  A    between atoms: _290  and  _291
REMARK  116  A    between atoms: _290  and  _293
REMARK  117  A    between atoms: _293  and  _294
REMARK  118  A    between atoms: _300  and  _302
REMARK  119  A    between atoms: _302  and  _303
REMARK  120  A    between atoms: _302  and  _305
REMARK  121  A    between atoms: _305  and  _306
REMARK  122  A    between atoms: _316  and  _318
REMARK  123  A    between atoms: _318  and  _319
REMARK  124  A    between atoms: _318  and  _321
REMARK  125  A    between atoms: _321  and  _322
REMARK  126  A    between atoms: _322  and  _323
REMARK  127  A    between atoms: _328  and  _330
REMARK  128  A    between atoms: _330  and  _331
REMARK  129  A    between atoms: _330  and  _333
REMARK  130  A    between atoms: _333  and  _334
REMARK  131  A    between atoms: _334  and  _335
REMARK  132  A    between atoms: _340  and  _342
REMARK  133  A    between atoms: _342  and  _343
REMARK  134  A    between atoms: _342  and  _345
REMARK  135  A    between atoms: _345  and  _346
REMARK  136  A    between atoms: _349  and  _351
REMARK  137  A    between atoms: _351  and  _352
REMARK  138  A    between atoms: _351  and  _354
REMARK  139  A    between atoms: _354  and  _355
REMARK  140  A    between atoms: _358  and  _360
REMARK  141  A    between atoms: _360  and  _361
REMARK  142  A    between atoms: _360  and  _363
REMARK  143  A    between atoms: _363  and  _364
REMARK  144  A    between atoms: _364  and  _365
REMARK  145  A    between atoms: _370  and  _372
REMARK  146  A    between atoms: _372  and  _373
REMARK  147  A    between atoms: _372  and  _375
REMARK  148  A    between atoms: _378  and  _380
REMARK  149  A    between atoms: _380  and  _381
REMARK  150  A    between atoms: _380  and  _383
REMARK  151  A    between atoms: _383  and  _384
REMARK  152  A    between atoms: _386  and  _388
REMARK  153  A    between atoms: _388  and  _389
REMARK  154  A    between atoms: _388  and  _391
REMARK  155  A    between atoms: _394  and  _396
REMARK  156  A    between atoms: _396  and  _397
REMARK  157  A    between atoms: _396  and  _399
REMARK  158  A    between atoms: _399  and  _400
REMARK  159  A    between atoms: _404  and  _405
REMARK  160  A    between atoms: _410  and  _412
REMARK  161  A    between atoms: _412  and  _413
REMARK  162  A    between atoms: _412  and  _415
REMARK  163  A    between atoms: _415  and  _416
REMARK  164  A    between atoms: _419  and  _421
REMARK  165  A    between atoms: _421  and  _422
REMARK  166  A    between atoms: _425  and  _427
REMARK  167  A    between atoms: _427  and  _428
REMARK  168  A    between atoms: _427  and  _430
REMARK  169  A    between atoms: _430  and  _431
REMARK  170  A    between atoms: _431  and  _432
REMARK  171  A    between atoms: _432  and  _433
REMARK  172  A    between atoms: _442  and  _444
REMARK  173  A    between atoms: _444  and  _445
REMARK  174  A    between atoms: _444  and  _447
REMARK  175  A    between atoms: _450  and  _452
REMARK  176  A    between atoms: _452  and  _453
REMARK  177  A    between atoms: _452  and  _455
REMARK  178  A    between atoms: _458  and  _460
REMARK  179  A    between atoms: _460  and  _461
REMARK  180  A    between atoms: _460  and  _463
REMARK  181  A    between atoms: _463  and  _464
REMARK  182  A    between atoms: _464  and  _465
REMARK  183  A    between atoms: _468  and  _470
REMARK  184  A    between atoms: _470  and  _471
REMARK  185  A    between atoms: _470  and  _473
REMARK  186  A    between atoms: _476  and  _478
REMARK  187  A    between atoms: _478  and  _479
REMARK  188  A    between atoms: _478  and  _481
REMARK  189  A    between atoms: _481  and  _482
REMARK  190  A    between atoms: _485  and  _487
REMARK  191  A    between atoms: _487  and  _488
REMARK  192  A    between atoms: _487  and  _490
REMARK  193  A    between atoms: _490  and  _491
REMARK  194  A    between atoms: _496  and  _497
REMARK  195  A    between atoms: _499  and  _501
REMARK  196  A    between atoms: _501  and  _502
REMARK  197  A    between atoms: _501  and  _504
REMARK  198  A    between atoms: _504  and  _505
REMARK  199  A    between atoms: _505  and  _506
REMARK  200  A    between atoms: _509  and  _510
REMARK  201  A    between atoms: _515  and  _517
REMARK  202  A    between atoms: _517  and  _518
REMARK  203  A    between atoms: _517  and  _520
REMARK  204  A    between atoms: _520  and  _521
REMARK  205  A    between atoms: _523  and  _525
REMARK  206  A    between atoms: _525  and  _526
REMARK  207  A    between atoms: _525  and  _528
REMARK  208  A    between atoms: _528  and  _529
REMARK  209  A    between atoms: _532  and  _534
REMARK  210  A    between atoms: _534  and  _535
REMARK  211  A    between atoms: _534  and  _537
REMARK  212  A    between atoms: _537  and  _538
REMARK  213  A    between atoms: _538  and  _539
REMARK  214  A    between atoms: _542  and  _544
REMARK  215  A    between atoms: _544  and  _545
REMARK  216  A    between atoms: _544  and  _547
REMARK  217  A    between atoms: _547  and  _548
REMARK  218  A    between atoms: _553  and  _554
REMARK  219  A    between atoms: _556  and  _558
REMARK  220  A    between atoms: _558  and  _559
REMARK  221  A    between atoms: _558  and  _561
REMARK  222  A    between atoms: _561  and  _562
REMARK                            x       y       z     vdW  Elec       q    Type
REMARK                         _______ _______ _______ _____ _____    ______ ____
ROOT
ATOM      1  O   HOH     1     -47.410 -51.981  37.410  0.00  0.00    +0.000 OA
ENDROOT
TORSDOF 0
REMARK  Name = ../refined-set-2016/4qac/4qac_pocket.pdb
REMARK  222 active torsions:
REMARK  status: ('A' for Active; 'I' for Inactive)
REMARK    1  A    between atoms: _1  and  _3
REMARK    2  A    between atoms: _3  and  _4
REMARK    3  A    between atoms: _3  and  _6
REMARK    4  A    between atoms: _6  and  _7
REMARK    5  A    between atoms: _10  and  _12
REMARK    6  A    between atoms: _12  and  _13
REMARK    7  A    between atoms: _12  and  _15
REMARK    8  A    between atoms: _15  and  _16
REMARK    9  A    between atoms: _19  and  _21
REMARK   10  A    between atoms: _21  and  _22
REMARK   11  A    between atoms: _25  and  _27
REMARK   12  A    between atoms: _27  and  _28
REMARK   13  A    between atoms: _31  and  _33
REMARK   14  A    between atoms: _33  and  _34
REMARK   15  A    between atoms: _33  and  _36
REMARK   16  A    between atoms: _36  and  _37
REMARK   17  A    between atoms: _42  and  _43
REMARK   18  A    between atoms: _45  and  _47
REMARK   19  A    between atoms: _47  and  _48
REMARK   20  A    between atoms: _47  and  _50
REMARK   21  A    between atoms: _50  and  _51
REMARK   22  A    between atoms: _56  and  _58
REMARK   23  A    between atoms: _58  and  _59
REMARK   24  A    between atoms: _62  and  _64
REMARK   25  A    between atoms: _64  and  _65
REMARK   26  A    between atoms: _64  and  _67
REMARK   27  A    between atoms: _67  and  _68
REMARK   28  A    between atoms: _68  and  _69
REMARK   29  A    between atoms: _69  and  _70
REMARK   30  A    between atoms: _70  and  _71
REMARK   31  A    between atoms: _75  and  _77
REMARK   32  A    between atoms: _77  and  _78
REMARK   33  A    between atoms: _77  and  _80
REMARK   34  A    between atoms: _80  and  _81
REMARK   35  A    between atoms: _84  and  _86
REMARK   36  A    between atoms: _86  and  _87
REMARK   37  A    between atoms: _89  and  _91
REMARK   38  A    between atoms: _91  and  _92
REMARK   39  A    between atoms: _91  and  _94
REMARK   40  A    between atoms: _94  and  _95
REMARK   41  A    between atoms: _97  and  _99
REMARK   42  A    between atoms: _99  and  _100
REMARK   43  A    between atoms: _99  and  _102
REMARK   44  A    between atoms: _102  and  _103
REMARK   45  A    between atoms: _113  and  _115
REMARK   46  A    between atoms: _115  and  _116
REMARK   47  A    between atoms: _115  and  _118
REMARK   48  A    between atoms: _118  and  _119
REMARK   49  A    between atoms: _122  and  _124
REMARK   50  A    between atoms: _124  and  _125
REMARK   51  A    between atoms: _124  and  _127
REMARK   52  A    between atoms: _127  and  _128
REMARK   53  A    between atoms: _133  and  _135
REMARK   54  A    between atoms: _135  and  _136
REMARK   55  A    between atoms: _135  and  _138
REMARK   56  A    between atoms: _138  and  _139
REMARK   57  A    between atoms: _144  and  _146
REMARK   58  A    between atoms: _146  and  _147
REMARK   59  A    between atoms: _146  and  _149
REMARK   60  A    between atoms: _152  and  _154
REMARK   61  A    between atoms: _154  and  _155
REMARK   62  A    between atoms: _154  and  _157
REMARK   63  A    between atoms: _157  and  _158
REMARK   64  A    between atoms: _161  and  _163
REMARK   65  A    between atoms: _163  and  _164
REMARK   66  A    between atoms: _163  and  _166
REMARK   67  A    between atoms: _166  and  _167
REMARK   68  A    between atoms: _172  and  _173
REMARK   69  A    between atoms: _175  and  _177
REMARK   70  A    between atoms: _177  and  _178
REMARK   71  A    between atoms: _177  and  _180
REMARK   72  A    between atoms: _180  and  _181
REMARK   73  A    between atoms: _183  and  _185
REMARK   74  A    between atoms: _192  and  _193
REMARK   75  A    between atoms: _197  and  _199
REMARK   76  A    between atoms: _199  and  _200
REMARK   77  A    between atoms: _199  and  _202
REMARK   78  A    between atoms: _202  and  _203
REMARK   79  A    between atoms: _203  and  _204
REMARK   80  A    between atoms: _207  and  _209
REMARK   81  A    between atoms: _209  and  _210
REMARK   82  A    between atoms: _213  and  _215
REMARK   83  A    between atoms: _215  and  _216
REMARK   84  A    between atoms: _215  and  _218
REMARK   85  A    between atoms: _218  and  _219
REMARK   86  A    between atoms: _224  and  _225
REMARK   87  A    between atoms: _227  and  _229
REMARK   88  A    between atoms: _229  and  _230
REMARK   89  A    between atoms: _229  and  _232
REMARK   90  A    between atoms: _232  and  _233
REMARK   91  A    between atoms: _233  and  _234
REMARK   92  A    between atoms: _237  and  _239
REMARK   93  A    between atoms: _239  and  _240
REMARK   94  A    between atoms: _239  and  _242
REMARK   95  A    between atoms: _242  and  _243
REMARK   96  A    between atoms: _246  and  _248
REMARK   97  A    between atoms: _248  and  _249
REMARK   98  A    between atoms: _248  and  _251
REMARK   99  A    between atoms: _251  and  _252
REMARK  100  A    between atoms: _252  and  _253
REMARK  101  A    between atoms: _253  and  _254
REMARK  102  A    between atoms: _254  and  _255
REMARK  103  A    between atoms: _259  and  _261
REMARK  104  A    between atoms: _261  and  _262
REMARK  105  A    between atoms: _261  and  _264
REMARK  106  A    between atoms: _264  and  _265
REMARK  107  A    between atoms: _271  and  _273
REMARK  108  A    between atoms: _273  and  _274
REMARK  109  A    between atoms: _273  and  _276
REMARK  110  A    between atoms: _276  and  _277
REMARK  111  A    between atoms: _280  and  _282
REMARK  112  A    between atoms: _282  and  _283
REMARK  113  A    between atoms: _282  and  _285
REMARK  114  A    between atoms: _288  and  _290
REMARK  115  A    between atoms: _290  and  _291
REMARK  116  A    between atoms: _290  and  _293
REMARK  117  A    between atoms: _293  and  _294
REMARK  118  A    between atoms: _300  and  _302
REMARK  119  A    between atoms: _302  and  _303
REMARK  120  A    between atoms: _302  and  _305
REMARK  121  A    between atoms: _305  and  _306
REMARK  122  A    between atoms: _316  and  _318
REMARK  123  A    between atoms: _318  and  _319
REMARK  124  A    between atoms: _318  and  _321
REMARK  125  A    between atoms: _321  and  _322
REMARK  126  A    between atoms: _322  and  _323
REMARK  127  A    between atoms: _328  and  _330
REMARK  128  A    between atoms: _330  and  _331
REMARK  129  A    between atoms: _330  and  _333
REMARK  130  A    between atoms: _333  and  _334
REMARK  131  A    between atoms: _334  and  _335
REMARK  132  A    between atoms: _340  and  _342
REMARK  133  A    between atoms: _342  and  _343
REMARK  134  A    between atoms: _342  and  _345
REMARK  135  A    between atoms: _345  and  _346
REMARK  136  A    between atoms: _349  and  _351
REMARK  137  A    between atoms: _351  and  _352
REMARK  138  A    between atoms: _351  and  _354
REMARK  139  A    between atoms: _354  and  _355
REMARK  140  A    between atoms: _358  and  _360
REMARK  141  A    between atoms: _360  and  _361
REMARK  142  A    between atoms: _360  and  _363
REMARK  143  A    between atoms: _363  and  _364
REMARK  144  A    between atoms: _364  and  _365
REMARK  145  A    between atoms: _370  and  _372
REMARK  146  A    between atoms: _372  and  _373
REMARK  147  A    between atoms: _372  and  _375
REMARK  148  A    between atoms: _378  and  _380
REMARK  149  A    between atoms: _380  and  _381
REMARK  150  A    between atoms: _380  and  _383
REMARK  151  A    between atoms: _383  and  _384
REMARK  152  A    between atoms: _386  and  _388
REMARK  153  A    between atoms: _388  and  _389
REMARK  154  A    between atoms: _388  and  _391
REMARK  155  A    between atoms: _394  and  _396
REMARK  156  A    between atoms: _396  and  _397
REMARK  157  A    between atoms: _396  and  _399
REMARK  158  A    between atoms: _399  and  _400
REMARK  159  A    between atoms: _404  and  _405
REMARK  160  A    between atoms: _410  and  _412
REMARK  161  A    between atoms: _412  and  _413
REMARK  162  A    between atoms: _412  and  _415
REMARK  163  A    between atoms: _415  and  _416
REMARK  164  A    between atoms: _419  and  _421
REMARK  165  A    between atoms: _421  and  _422
REMARK  166  A    between atoms: _425  and  _427
REMARK  167  A    between atoms: _427  and  _428
REMARK  168  A    between atoms: _427  and  _430
REMARK  169  A    between atoms: _430  and  _431
REMARK  170  A    between atoms: _431  and  _432
REMARK  171  A    between atoms: _432  and  _433
REMARK  172  A    between atoms: _442  and  _444
REMARK  173  A    between atoms: _444  and  _445
REMARK  174  A    between atoms: _444  and  _447
REMARK  175  A    between atoms: _450  and  _452
REMARK  176  A    between atoms: _452  and  _453
REMARK  177  A    between atoms: _452  and  _455
REMARK  178  A    between atoms: _458  and  _460
REMARK  179  A    between atoms: _460  and  _461
REMARK  180  A    between atoms: _460  and  _463
REMARK  181  A    between atoms: _463  and  _464
REMARK  182  A    between atoms: _464  and  _465
REMARK  183  A    between atoms: _468  and  _470
REMARK  184  A    between atoms: _470  and  _471
REMARK  185  A    between atoms: _470  and  _473
REMARK  186  A    between atoms: _476  and  _478
REMARK  187  A    between atoms: _478  and  _479
REMARK  188  A    between atoms: _478  and  _481
REMARK  189  A    between atoms: _481  and  _482
REMARK  190  A    between atoms: _485  and  _487
REMARK  191  A    between atoms: _487  and  _488
REMARK  192  A    between atoms: _487  and  _490
REMARK  193  A    between atoms: _490  and  _491
REMARK  194  A    between atoms: _496  and  _497
REMARK  195  A    between atoms: _499  and  _501
REMARK  196  A    between atoms: _501  and  _502
REMARK  197  A    between atoms: _501  and  _504
REMARK  198  A    between atoms: _504  and  _505
REMARK  199  A    between atoms: _505  and  _506
REMARK  200  A    between atoms: _509  and  _510
REMARK  201  A    between atoms: _515  and  _517
REMARK  202  A    between atoms: _517  and  _518
REMARK  203  A    between atoms: _517  and  _520
REMARK  204  A    between atoms: _520  and  _521
REMARK  205  A    between atoms: _523  and  _525
REMARK  206  A    between atoms: _525  and  _526
REMARK  207  A    between atoms: _525  and  _528
REMARK  208  A    between atoms: _528  and  _529
REMARK  209  A    between atoms: _532  and  _534
REMARK  210  A    between atoms: _534  and  _535
REMARK  211  A    between atoms: _534  and  _537
REMARK  212  A    between atoms: _537  and  _538
REMARK  213  A    between atoms: _538  and  _539
REMARK  214  A    between atoms: _542  and  _544
REMARK  215  A    between atoms: _544  and  _545
REMARK  216  A    between atoms: _544  and  _547
REMARK  217  A    between atoms: _547  and  _548
REMARK  218  A    between atoms: _553  and  _554
REMARK  219  A    between atoms: _556  and  _558
REMARK  220  A    between atoms: _558  and  _559
REMARK  221  A    between atoms: _558  and  _561
REMARK  222  A    between atoms: _561  and  _562
REMARK                            x       y       z     vdW  Elec       q    Type
REMARK                         _______ _______ _______ _____ _____    ______ ____
ROOT
ATOM      1  O   HOH     1     -53.234 -39.170  33.033  0.00  0.00    +0.000 OA
ENDROOT
TORSDOF 0
REMARK  Name = ../refined-set-2016/4qac/4qac_pocket.pdb
REMARK  222 active torsions:
REMARK  status: ('A' for Active; 'I' for Inactive)
REMARK    1  A    between atoms: _1  and  _3
REMARK    2  A    between atoms: _3  and  _4
REMARK    3  A    between atoms: _3  and  _6
REMARK    4  A    between atoms: _6  and  _7
REMARK    5  A    between atoms: _10  and  _12
REMARK    6  A    between atoms: _12  and  _13
REMARK    7  A    between atoms: _12  and  _15
REMARK    8  A    between atoms: _15  and  _16
REMARK    9  A    between atoms: _19  and  _21
REMARK   10  A    between atoms: _21  and  _22
REMARK   11  A    between atoms: _25  and  _27
REMARK   12  A    between atoms: _27  and  _28
REMARK   13  A    between atoms: _31  and  _33
REMARK   14  A    between atoms: _33  and  _34
REMARK   15  A    between atoms: _33  and  _36
REMARK   16  A    between atoms: _36  and  _37
REMARK   17  A    between atoms: _42  and  _43
REMARK   18  A    between atoms: _45  and  _47
REMARK   19  A    between atoms: _47  and  _48
REMARK   20  A    between atoms: _47  and  _50
REMARK   21  A    between atoms: _50  and  _51
REMARK   22  A    between atoms: _56  and  _58
REMARK   23  A    between atoms: _58  and  _59
REMARK   24  A    between atoms: _62  and  _64
REMARK   25  A    between atoms: _64  and  _65
REMARK   26  A    between atoms: _64  and  _67
REMARK   27  A    between atoms: _67  and  _68
REMARK   28  A    between atoms: _68  and  _69
REMARK   29  A    between atoms: _69  and  _70
REMARK   30  A    between atoms: _70  and  _71
REMARK   31  A    between atoms: _75  and  _77
REMARK   32  A    between atoms: _77  and  _78
REMARK   33  A    between atoms: _77  and  _80
REMARK   34  A    between atoms: _80  and  _81
REMARK   35  A    between atoms: _84  and  _86
REMARK   36  A    between atoms: _86  and  _87
REMARK   37  A    between atoms: _89  and  _91
REMARK   38  A    between atoms: _91  and  _92
REMARK   39  A    between atoms: _91  and  _94
REMARK   40  A    between atoms: _94  and  _95
REMARK   41  A    between atoms: _97  and  _99
REMARK   42  A    between atoms: _99  and  _100
REMARK   43  A    between atoms: _99  and  _102
REMARK   44  A    between atoms: _102  and  _103
REMARK   45  A    between atoms: _113  and  _115
REMARK   46  A    between atoms: _115  and  _116
REMARK   47  A    between atoms: _115  and  _118
REMARK   48  A    between atoms: _118  and  _119
REMARK   49  A    between atoms: _122  and  _124
REMARK   50  A    between atoms: _124  and  _125
REMARK   51  A    between atoms: _124  and  _127
REMARK   52  A    between atoms: _127  and  _128
REMARK   53  A    between atoms: _133  and  _135
REMARK   54  A    between atoms: _135  and  _136
REMARK   55  A    between atoms: _135  and  _138
REMARK   56  A    between atoms: _138  and  _139
REMARK   57  A    between atoms: _144  and  _146
REMARK   58  A    between atoms: _146  and  _147
REMARK   59  A    between atoms: _146  and  _149
REMARK   60  A    between atoms: _152  and  _154
REMARK   61  A    between atoms: _154  and  _155
REMARK   62  A    between atoms: _154  and  _157
REMARK   63  A    between atoms: _157  and  _158
REMARK   64  A    between atoms: _161  and  _163
REMARK   65  A    between atoms: _163  and  _164
REMARK   66  A    between atoms: _163  and  _166
REMARK   67  A    between atoms: _166  and  _167
REMARK   68  A    between atoms: _172  and  _173
REMARK   69  A    between atoms: _175  and  _177
REMARK   70  A    between atoms: _177  and  _178
REMARK   71  A    between atoms: _177  and  _180
REMARK   72  A    between atoms: _180  and  _181
REMARK   73  A    between atoms: _183  and  _185
REMARK   74  A    between atoms: _192  and  _193
REMARK   75  A    between atoms: _197  and  _199
REMARK   76  A    between atoms: _199  and  _200
REMARK   77  A    between atoms: _199  and  _202
REMARK   78  A    between atoms: _202  and  _203
REMARK   79  A    between atoms: _203  and  _204
REMARK   80  A    between atoms: _207  and  _209
REMARK   81  A    between atoms: _209  and  _210
REMARK   82  A    between atoms: _213  and  _215
REMARK   83  A    between atoms: _215  and  _216
REMARK   84  A    between atoms: _215  and  _218
REMARK   85  A    between atoms: _218  and  _219
REMARK   86  A    between atoms: _224  and  _225
REMARK   87  A    between atoms: _227  and  _229
REMARK   88  A    between atoms: _229  and  _230
REMARK   89  A    between atoms: _229  and  _232
REMARK   90  A    between atoms: _232  and  _233
REMARK   91  A    between atoms: _233  and  _234
REMARK   92  A    between atoms: _237  and  _239
REMARK   93  A    between atoms: _239  and  _240
REMARK   94  A    between atoms: _239  and  _242
REMARK   95  A    between atoms: _242  and  _243
REMARK   96  A    between atoms: _246  and  _248
REMARK   97  A    between atoms: _248  and  _249
REMARK   98  A    between atoms: _248  and  _251
REMARK   99  A    between atoms: _251  and  _252
REMARK  100  A    between atoms: _252  and  _253
REMARK  101  A    between atoms: _253  and  _254
REMARK  102  A    between atoms: _254  and  _255
REMARK  103  A    between atoms: _259  and  _261
REMARK  104  A    between atoms: _261  and  _262
REMARK  105  A    between atoms: _261  and  _264
REMARK  106  A    between atoms: _264  and  _265
REMARK  107  A    between atoms: _271  and  _273
REMARK  108  A    between atoms: _273  and  _274
REMARK  109  A    between atoms: _273  and  _276
REMARK  110  A    between atoms: _276  and  _277
REMARK  111  A    between atoms: _280  and  _282
REMARK  112  A    between atoms: _282  and  _283
REMARK  113  A    between atoms: _282  and  _285
REMARK  114  A    between atoms: _288  and  _290
REMARK  115  A    between atoms: _290  and  _291
REMARK  116  A    between atoms: _290  and  _293
REMARK  117  A    between atoms: _293  and  _294
REMARK  118  A    between atoms: _300  and  _302
REMARK  119  A    between atoms: _302  and  _303
REMARK  120  A    between atoms: _302  and  _305
REMARK  121  A    between atoms: _305  and  _306
REMARK  122  A    between atoms: _316  and  _318
REMARK  123  A    between atoms: _318  and  _319
REMARK  124  A    between atoms: _318  and  _321
REMARK  125  A    between atoms: _321  and  _322
REMARK  126  A    between atoms: _322  and  _323
REMARK  127  A    between atoms: _328  and  _330
REMARK  128  A    between atoms: _330  and  _331
REMARK  129  A    between atoms: _330  and  _333
REMARK  130  A    between atoms: _333  and  _334
REMARK  131  A    between atoms: _334  and  _335
REMARK  132  A    between atoms: _340  and  _342
REMARK  133  A    between atoms: _342  and  _343
REMARK  134  A    between atoms: _342  and  _345
REMARK  135  A    between atoms: _345  and  _346
REMARK  136  A    between atoms: _349  and  _351
REMARK  137  A    between atoms: _351  and  _352
REMARK  138  A    between atoms: _351  and  _354
REMARK  139  A    between atoms: _354  and  _355
REMARK  140  A    between atoms: _358  and  _360
REMARK  141  A    between atoms: _360  and  _361
REMARK  142  A    between atoms: _360  and  _363
REMARK  143  A    between atoms: _363  and  _364
REMARK  144  A    between atoms: _364  and  _365
REMARK  145  A    between atoms: _370  and  _372
REMARK  146  A    between atoms: _372  and  _373
REMARK  147  A    between atoms: _372  and  _375
REMARK  148  A    between atoms: _378  and  _380
REMARK  149  A    between atoms: _380  and  _381
REMARK  150  A    between atoms: _380  and  _383
REMARK  151  A    between atoms: _383  and  _384
REMARK  152  A    between atoms: _386  and  _388
REMARK  153  A    between atoms: _388  and  _389
REMARK  154  A    between atoms: _388  and  _391
REMARK  155  A    between atoms: _394  and  _396
REMARK  156  A    between atoms: _396  and  _397
REMARK  157  A    between atoms: _396  and  _399
REMARK  158  A    between atoms: _399  and  _400
REMARK  159  A    between atoms: _404  and  _405
REMARK  160  A    between atoms: _410  and  _412
REMARK  161  A    between atoms: _412  and  _413
REMARK  162  A    between atoms: _412  and  _415
REMARK  163  A    between atoms: _415  and  _416
REMARK  164  A    between atoms: _419  and  _421
REMARK  165  A    between atoms: _421  and  _422
REMARK  166  A    between atoms: _425  and  _427
REMARK  167  A    between atoms: _427  and  _428
REMARK  168  A    between atoms: _427  and  _430
REMARK  169  A    between atoms: _430  and  _431
REMARK  170  A    between atoms: _431  and  _432
REMARK  171  A    between atoms: _432  and  _433
REMARK  172  A    between atoms: _442  and  _444
REMARK  173  A    between atoms: _444  and  _445
REMARK  174  A    between atoms: _444  and  _447
REMARK  175  A    between atoms: _450  and  _452
REMARK  176  A    between atoms: _452  and  _453
REMARK  177  A    between atoms: _452  and  _455
REMARK  178  A    between atoms: _458  and  _460
REMARK  179  A    between atoms: _460  and  _461
REMARK  180  A    between atoms: _460  and  _463
REMARK  181  A    between atoms: _463  and  _464
REMARK  182  A    between atoms: _464  and  _465
REMARK  183  A    between atoms: _468  and  _470
REMARK  184  A    between atoms: _470  and  _471
REMARK  185  A    between atoms: _470  and  _473
REMARK  186  A    between atoms: _476  and  _478
REMARK  187  A    between atoms: _478  and  _479
REMARK  188  A    between atoms: _478  and  _481
REMARK  189  A    between atoms: _481  and  _482
REMARK  190  A    between atoms: _485  and  _487
REMARK  191  A    between atoms: _487  and  _488
REMARK  192  A    between atoms: _487  and  _490
REMARK  193  A    between atoms: _490  and  _491
REMARK  194  A    between atoms: _496  and  _497
REMARK  195  A    between atoms: _499  and  _501
REMARK  196  A    between atoms: _501  and  _502
REMARK  197  A    between atoms: _501  and  _504
REMARK  198  A    between atoms: _504  and  _505
REMARK  199  A    between atoms: _505  and  _506
REMARK  200  A    between atoms: _509  and  _510
REMARK  201  A    between atoms: _515  and  _517
REMARK  202  A    between atoms: _517  and  _518
REMARK  203  A    between atoms: _517  and  _520
REMARK  204  A    between atoms: _520  and  _521
REMARK  205  A    between atoms: _523  and  _525
REMARK  206  A    between atoms: _525  and  _526
REMARK  207  A    between atoms: _525  and  _528
REMARK  208  A    between atoms: _528  and  _529
REMARK  209  A    between atoms: _532  and  _534
REMARK  210  A    between atoms: _534  and  _535
REMARK  211  A    between atoms: _534  and  _537
REMARK  212  A    between atoms: _537  and  _538
REMARK  213  A    between atoms: _538  and  _539
REMARK  214  A    between atoms: _542  and  _544
REMARK  215  A    between atoms: _544  and  _545
REMARK  216  A    between atoms: _544  and  _547
REMARK  217  A    between atoms: _547  and  _548
REMARK  218  A    between atoms: _553  and  _554
REMARK  219  A    between atoms: _556  and  _558
REMARK  220  A    between atoms: _558  and  _559
REMARK  221  A    between atoms: _558  and  _561
REMARK  222  A    between atoms: _561  and  _562
REMARK                            x       y       z     vdW  Elec       q    Type
REMARK                         _______ _______ _______ _____ _____    ______ ____
ROOT
ATOM      1  O   HOH     1     -40.787 -46.088  28.857  0.00  0.00    +0.000 OA
ENDROOT
TORSDOF 0
REMARK  Name = ../refined-set-2016/4qac/4qac_pocket.pdb
REMARK  222 active torsions:
REMARK  status: ('A' for Active; 'I' for Inactive)
REMARK    1  A    between atoms: _1  and  _3
REMARK    2  A    between atoms: _3  and  _4
REMARK    3  A    between atoms: _3  and  _6
REMARK    4  A    between atoms: _6  and  _7
REMARK    5  A    between atoms: _10  and  _12
REMARK    6  A    between atoms: _12  and  _13
REMARK    7  A    between atoms: _12  and  _15
REMARK    8  A    between atoms: _15  and  _16
REMARK    9  A    between atoms: _19  and  _21
REMARK   10  A    between atoms: _21  and  _22
REMARK   11  A    between atoms: _25  and  _27
REMARK   12  A    between atoms: _27  and  _28
REMARK   13  A    between atoms: _31  and  _33
REMARK   14  A    between atoms: _33  and  _34
REMARK   15  A    between atoms: _33  and  _36
REMARK   16  A    between atoms: _36  and  _37
REMARK   17  A    between atoms: _42  and  _43
REMARK   18  A    between atoms: _45  and  _47
REMARK   19  A    between atoms: _47  and  _48
REMARK   20  A    between atoms: _47  and  _50
REMARK   21  A    between atoms: _50  and  _51
REMARK   22  A    between atoms: _56  and  _58
REMARK   23  A    between atoms: _58  and  _59
REMARK   24  A    between atoms: _62  and  _64
REMARK   25  A    between atoms: _64  and  _65
REMARK   26  A    between atoms: _64  and  _67
REMARK   27  A    between atoms: _67  and  _68
REMARK   28  A    between atoms: _68  and  _69
REMARK   29  A    between atoms: _69  and  _70
REMARK   30  A    between atoms: _70  and  _71
REMARK   31  A    between atoms: _75  and  _77
REMARK   32  A    between atoms: _77  and  _78
REMARK   33  A    between atoms: _77  and  _80
REMARK   34  A    between atoms: _80  and  _81
REMARK   35  A    between atoms: _84  and  _86
REMARK   36  A    between atoms: _86  and  _87
REMARK   37  A    between atoms: _89  and  _91
REMARK   38  A    between atoms: _91  and  _92
REMARK   39  A    between atoms: _91  and  _94
REMARK   40  A    between atoms: _94  and  _95
REMARK   41  A    between atoms: _97  and  _99
REMARK   42  A    between atoms: _99  and  _100
REMARK   43  A    between atoms: _99  and  _102
REMARK   44  A    between atoms: _102  and  _103
REMARK   45  A    between atoms: _113  and  _115
REMARK   46  A    between atoms: _115  and  _116
REMARK   47  A    between atoms: _115  and  _118
REMARK   48  A    between atoms: _118  and  _119
REMARK   49  A    between atoms: _122  and  _124
REMARK   50  A    between atoms: _124  and  _125
REMARK   51  A    between atoms: _124  and  _127
REMARK   52  A    between atoms: _127  and  _128
REMARK   53  A    between atoms: _133  and  _135
REMARK   54  A    between atoms: _135  and  _136
REMARK   55  A    between atoms: _135  and  _138
REMARK   56  A    between atoms: _138  and  _139
REMARK   57  A    between atoms: _144  and  _146
REMARK   58  A    between atoms: _146  and  _147
REMARK   59  A    between atoms: _146  and  _149
REMARK   60  A    between atoms: _152  and  _154
REMARK   61  A    between atoms: _154  and  _155
REMARK   62  A    between atoms: _154  and  _157
REMARK   63  A    between atoms: _157  and  _158
REMARK   64  A    between atoms: _161  and  _163
REMARK   65  A    between atoms: _163  and  _164
REMARK   66  A    between atoms: _163  and  _166
REMARK   67  A    between atoms: _166  and  _167
REMARK   68  A    between atoms: _172  and  _173
REMARK   69  A    between atoms: _175  and  _177
REMARK   70  A    between atoms: _177  and  _178
REMARK   71  A    between atoms: _177  and  _180
REMARK   72  A    between atoms: _180  and  _181
REMARK   73  A    between atoms: _183  and  _185
REMARK   74  A    between atoms: _192  and  _193
REMARK   75  A    between atoms: _197  and  _199
REMARK   76  A    between atoms: _199  and  _200
REMARK   77  A    between atoms: _199  and  _202
REMARK   78  A    between atoms: _202  and  _203
REMARK   79  A    between atoms: _203  and  _204
REMARK   80  A    between atoms: _207  and  _209
REMARK   81  A    between atoms: _209  and  _210
REMARK   82  A    between atoms: _213  and  _215
REMARK   83  A    between atoms: _215  and  _216
REMARK   84  A    between atoms: _215  and  _218
REMARK   85  A    between atoms: _218  and  _219
REMARK   86  A    between atoms: _224  and  _225
REMARK   87  A    between atoms: _227  and  _229
REMARK   88  A    between atoms: _229  and  _230
REMARK   89  A    between atoms: _229  and  _232
REMARK   90  A    between atoms: _232  and  _233
REMARK   91  A    between atoms: _233  and  _234
REMARK   92  A    between atoms: _237  and  _239
REMARK   93  A    between atoms: _239  and  _240
REMARK   94  A    between atoms: _239  and  _242
REMARK   95  A    between atoms: _242  and  _243
REMARK   96  A    between atoms: _246  and  _248
REMARK   97  A    between atoms: _248  and  _249
REMARK   98  A    between atoms: _248  and  _251
REMARK   99  A    between atoms: _251  and  _252
REMARK  100  A    between atoms: _252  and  _253
REMARK  101  A    between atoms: _253  and  _254
REMARK  102  A    between atoms: _254  and  _255
REMARK  103  A    between atoms: _259  and  _261
REMARK  104  A    between atoms: _261  and  _262
REMARK  105  A    between atoms: _261  and  _264
REMARK  106  A    between atoms: _264  and  _265
REMARK  107  A    between atoms: _271  and  _273
REMARK  108  A    between atoms: _273  and  _274
REMARK  109  A    between atoms: _273  and  _276
REMARK  110  A    between atoms: _276  and  _277
REMARK  111  A    between atoms: _280  and  _282
REMARK  112  A    between atoms: _282  and  _283
REMARK  113  A    between atoms: _282  and  _285
REMARK  114  A    between atoms: _288  and  _290
REMARK  115  A    between atoms: _290  and  _291
REMARK  116  A    between atoms: _290  and  _293
REMARK  117  A    between atoms: _293  and  _294
REMARK  118  A    between atoms: _300  and  _302
REMARK  119  A    between atoms: _302  and  _303
REMARK  120  A    between atoms: _302  and  _305
REMARK  121  A    between atoms: _305  and  _306
REMARK  122  A    between atoms: _316  and  _318
REMARK  123  A    between atoms: _318  and  _319
REMARK  124  A    between atoms: _318  and  _321
REMARK  125  A    between atoms: _321  and  _322
REMARK  126  A    between atoms: _322  and  _323
REMARK  127  A    between atoms: _328  and  _330
REMARK  128  A    between atoms: _330  and  _331
REMARK  129  A    between atoms: _330  and  _333
REMARK  130  A    between atoms: _333  and  _334
REMARK  131  A    between atoms: _334  and  _335
REMARK  132  A    between atoms: _340  and  _342
REMARK  133  A    between atoms: _342  and  _343
REMARK  134  A    between atoms: _342  and  _345
REMARK  135  A    between atoms: _345  and  _346
REMARK  136  A    between atoms: _349  and  _351
REMARK  137  A    between atoms: _351  and  _352
REMARK  138  A    between atoms: _351  and  _354
REMARK  139  A    between atoms: _354  and  _355
REMARK  140  A    between atoms: _358  and  _360
REMARK  141  A    between atoms: _360  and  _361
REMARK  142  A    between atoms: _360  and  _363
REMARK  143  A    between atoms: _363  and  _364
REMARK  144  A    between atoms: _364  and  _365
REMARK  145  A    between atoms: _370  and  _372
REMARK  146  A    between atoms: _372  and  _373
REMARK  147  A    between atoms: _372  and  _375
REMARK  148  A    between atoms: _378  and  _380
REMARK  149  A    between atoms: _380  and  _381
REMARK  150  A    between atoms: _380  and  _383
REMARK  151  A    between atoms: _383  and  _384
REMARK  152  A    between atoms: _386  and  _388
REMARK  153  A    between atoms: _388  and  _389
REMARK  154  A    between atoms: _388  and  _391
REMARK  155  A    between atoms: _394  and  _396
REMARK  156  A    between atoms: _396  and  _397
REMARK  157  A    between atoms: _396  and  _399
REMARK  158  A    between atoms: _399  and  _400
REMARK  159  A    between atoms: _404  and  _405
REMARK  160  A    between atoms: _410  and  _412
REMARK  161  A    between atoms: _412  and  _413
REMARK  162  A    between atoms: _412  and  _415
REMARK  163  A    between atoms: _415  and  _416
REMARK  164  A    between atoms: _419  and  _421
REMARK  165  A    between atoms: _421  and  _422
REMARK  166  A    between atoms: _425  and  _427
REMARK  167  A    between atoms: _427  and  _428
REMARK  168  A    between atoms: _427  and  _430
REMARK  169  A    between atoms: _430  and  _431
REMARK  170  A    between atoms: _431  and  _432
REMARK  171  A    between atoms: _432  and  _433
REMARK  172  A    between atoms: _442  and  _444
REMARK  173  A    between atoms: _444  and  _445
REMARK  174  A    between atoms: _444  and  _447
REMARK  175  A    between atoms: _450  and  _452
REMARK  176  A    between atoms: _452  and  _453
REMARK  177  A    between atoms: _452  and  _455
REMARK  178  A    between atoms: _458  and  _460
REMARK  179  A    between atoms: _460  and  _461
REMARK  180  A    between atoms: _460  and  _463
REMARK  181  A    between atoms: _463  and  _464
REMARK  182  A    between atoms: _464  and  _465
REMARK  183  A    between atoms: _468  and  _470
REMARK  184  A    between atoms: _470  and  _471
REMARK  185  A    between atoms: _470  and  _473
REMARK  186  A    between atoms: _476  and  _478
REMARK  187  A    between atoms: _478  and  _479
REMARK  188  A    between atoms: _478  and  _481
REMARK  189  A    between atoms: _481  and  _482
REMARK  190  A    between atoms: _485  and  _487
REMARK  191  A    between atoms: _487  and  _488
REMARK  192  A    between atoms: _487  and  _490
REMARK  193  A    between atoms: _490  and  _491
REMARK  194  A    between atoms: _496  and  _497
REMARK  195  A    between atoms: _499  and  _501
REMARK  196  A    between atoms: _501  and  _502
REMARK  197  A    between atoms: _501  and  _504
REMARK  198  A    between atoms: _504  and  _505
REMARK  199  A    between atoms: _505  and  _506
REMARK  200  A    between atoms: _509  and  _510
REMARK  201  A    between atoms: _515  and  _517
REMARK  202  A    between atoms: _517  and  _518
REMARK  203  A    between atoms: _517  and  _520
REMARK  204  A    between atoms: _520  and  _521
REMARK  205  A    between atoms: _523  and  _525
REMARK  206  A    between atoms: _525  and  _526
REMARK  207  A    between atoms: _525  and  _528
REMARK  208  A    between atoms: _528  and  _529
REMARK  209  A    between atoms: _532  and  _534
REMARK  210  A    between atoms: _534  and  _535
REMARK  211  A    between atoms: _534  and  _537
REMARK  212  A    between atoms: _537  and  _538
REMARK  213  A    between atoms: _538  and  _539
REMARK  214  A    between atoms: _542  and  _544
REMARK  215  A    between atoms: _544  and  _545
REMARK  216  A    between atoms: _544  and  _547
REMARK  217  A    between atoms: _547  and  _548
REMARK  218  A    between atoms: _553  and  _554
REMARK  219  A    between atoms: _556  and  _558
REMARK  220  A    between atoms: _558  and  _559
REMARK  221  A    between atoms: _558  and  _561
REMARK  222  A    between atoms: _561  and  _562
REMARK                            x       y       z     vdW  Elec       q    Type
REMARK                         _______ _______ _______ _____ _____    ______ ____
ROOT
ATOM      1  O   HOH     1     -44.491 -40.549  29.978  0.00  0.00    +0.000 OA
ENDROOT
TORSDOF 0
REMARK  Name = ../refined-set-2016/4qac/4qac_pocket.pdb
REMARK  222 active torsions:
REMARK  status: ('A' for Active; 'I' for Inactive)
REMARK    1  A    between atoms: _1  and  _3
REMARK    2  A    between atoms: _3  and  _4
REMARK    3  A    between atoms: _3  and  _6
REMARK    4  A    between atoms: _6  and  _7
REMARK    5  A    between atoms: _10  and  _12
REMARK    6  A    between atoms: _12  and  _13
REMARK    7  A    between atoms: _12  and  _15
REMARK    8  A    between atoms: _15  and  _16
REMARK    9  A    between atoms: _19  and  _21
REMARK   10  A    between atoms: _21  and  _22
REMARK   11  A    between atoms: _25  and  _27
REMARK   12  A    between atoms: _27  and  _28
REMARK   13  A    between atoms: _31  and  _33
REMARK   14  A    between atoms: _33  and  _34
REMARK   15  A    between atoms: _33  and  _36
REMARK   16  A    between atoms: _36  and  _37
REMARK   17  A    between atoms: _42  and  _43
REMARK   18  A    between atoms: _45  and  _47
REMARK   19  A    between atoms: _47  and  _48
REMARK   20  A    between atoms: _47  and  _50
REMARK   21  A    between atoms: _50  and  _51
REMARK   22  A    between atoms: _56  and  _58
REMARK   23  A    between atoms: _58  and  _59
REMARK   24  A    between atoms: _62  and  _64
REMARK   25  A    between atoms: _64  and  _65
REMARK   26  A    between atoms: _64  and  _67
REMARK   27  A    between atoms: _67  and  _68
REMARK   28  A    between atoms: _68  and  _69
REMARK   29  A    between atoms: _69  and  _70
REMARK   30  A    between atoms: _70  and  _71
REMARK   31  A    between atoms: _75  and  _77
REMARK   32  A    between atoms: _77  and  _78
REMARK   33  A    between atoms: _77  and  _80
REMARK   34  A    between atoms: _80  and  _81
REMARK   35  A    between atoms: _84  and  _86
REMARK   36  A    between atoms: _86  and  _87
REMARK   37  A    between atoms: _89  and  _91
REMARK   38  A    between atoms: _91  and  _92
REMARK   39  A    between atoms: _91  and  _94
REMARK   40  A    between atoms: _94  and  _95
REMARK   41  A    between atoms: _97  and  _99
REMARK   42  A    between atoms: _99  and  _100
REMARK   43  A    between atoms: _99  and  _102
REMARK   44  A    between atoms: _102  and  _103
REMARK   45  A    between atoms: _113  and  _115
REMARK   46  A    between atoms: _115  and  _116
REMARK   47  A    between atoms: _115  and  _118
REMARK   48  A    between atoms: _118  and  _119
REMARK   49  A    between atoms: _122  and  _124
REMARK   50  A    between atoms: _124  and  _125
REMARK   51  A    between atoms: _124  and  _127
REMARK   52  A    between atoms: _127  and  _128
REMARK   53  A    between atoms: _133  and  _135
REMARK   54  A    between atoms: _135  and  _136
REMARK   55  A    between atoms: _135  and  _138
REMARK   56  A    between atoms: _138  and  _139
REMARK   57  A    between atoms: _144  and  _146
REMARK   58  A    between atoms: _146  and  _147
REMARK   59  A    between atoms: _146  and  _149
REMARK   60  A    between atoms: _152  and  _154
REMARK   61  A    between atoms: _154  and  _155
REMARK   62  A    between atoms: _154  and  _157
REMARK   63  A    between atoms: _157  and  _158
REMARK   64  A    between atoms: _161  and  _163
REMARK   65  A    between atoms: _163  and  _164
REMARK   66  A    between atoms: _163  and  _166
REMARK   67  A    between atoms: _166  and  _167
REMARK   68  A    between atoms: _172  and  _173
REMARK   69  A    between atoms: _175  and  _177
REMARK   70  A    between atoms: _177  and  _178
REMARK   71  A    between atoms: _177  and  _180
REMARK   72  A    between atoms: _180  and  _181
REMARK   73  A    between atoms: _183  and  _185
REMARK   74  A    between atoms: _192  and  _193
REMARK   75  A    between atoms: _197  and  _199
REMARK   76  A    between atoms: _199  and  _200
REMARK   77  A    between atoms: _199  and  _202
REMARK   78  A    between atoms: _202  and  _203
REMARK   79  A    between atoms: _203  and  _204
REMARK   80  A    between atoms: _207  and  _209
REMARK   81  A    between atoms: _209  and  _210
REMARK   82  A    between atoms: _213  and  _215
REMARK   83  A    between atoms: _215  and  _216
REMARK   84  A    between atoms: _215  and  _218
REMARK   85  A    between atoms: _218  and  _219
REMARK   86  A    between atoms: _224  and  _225
REMARK   87  A    between atoms: _227  and  _229
REMARK   88  A    between atoms: _229  and  _230
REMARK   89  A    between atoms: _229  and  _232
REMARK   90  A    between atoms: _232  and  _233
REMARK   91  A    between atoms: _233  and  _234
REMARK   92  A    between atoms: _237  and  _239
REMARK   93  A    between atoms: _239  and  _240
REMARK   94  A    between atoms: _239  and  _242
REMARK   95  A    between atoms: _242  and  _243
REMARK   96  A    between atoms: _246  and  _248
REMARK   97  A    between atoms: _248  and  _249
REMARK   98  A    between atoms: _248  and  _251
REMARK   99  A    between atoms: _251  and  _252
REMARK  100  A    between atoms: _252  and  _253
REMARK  101  A    between atoms: _253  and  _254
REMARK  102  A    between atoms: _254  and  _255
REMARK  103  A    between atoms: _259  and  _261
REMARK  104  A    between atoms: _261  and  _262
REMARK  105  A    between atoms: _261  and  _264
REMARK  106  A    between atoms: _264  and  _265
REMARK  107  A    between atoms: _271  and  _273
REMARK  108  A    between atoms: _273  and  _274
REMARK  109  A    between atoms: _273  and  _276
REMARK  110  A    between atoms: _276  and  _277
REMARK  111  A    between atoms: _280  and  _282
REMARK  112  A    between atoms: _282  and  _283
REMARK  113  A    between atoms: _282  and  _285
REMARK  114  A    between atoms: _288  and  _290
REMARK  115  A    between atoms: _290  and  _291
REMARK  116  A    between atoms: _290  and  _293
REMARK  117  A    between atoms: _293  and  _294
REMARK  118  A    between atoms: _300  and  _302
REMARK  119  A    between atoms: _302  and  _303
REMARK  120  A    between atoms: _302  and  _305
REMARK  121  A    between atoms: _305  and  _306
REMARK  122  A    between atoms: _316  and  _318
REMARK  123  A    between atoms: _318  and  _319
REMARK  124  A    between atoms: _318  and  _321
REMARK  125  A    between atoms: _321  and  _322
REMARK  126  A    between atoms: _322  and  _323
REMARK  127  A    between atoms: _328  and  _330
REMARK  128  A    between atoms: _330  and  _331
REMARK  129  A    between atoms: _330  and  _333
REMARK  130  A    between atoms: _333  and  _334
REMARK  131  A    between atoms: _334  and  _335
REMARK  132  A    between atoms: _340  and  _342
REMARK  133  A    between atoms: _342  and  _343
REMARK  134  A    between atoms: _342  and  _345
REMARK  135  A    between atoms: _345  and  _346
REMARK  136  A    between atoms: _349  and  _351
REMARK  137  A    between atoms: _351  and  _352
REMARK  138  A    between atoms: _351  and  _354
REMARK  139  A    between atoms: _354  and  _355
REMARK  140  A    between atoms: _358  and  _360
REMARK  141  A    between atoms: _360  and  _361
REMARK  142  A    between atoms: _360  and  _363
REMARK  143  A    between atoms: _363  and  _364
REMARK  144  A    between atoms: _364  and  _365
REMARK  145  A    between atoms: _370  and  _372
REMARK  146  A    between atoms: _372  and  _373
REMARK  147  A    between atoms: _372  and  _375
REMARK  148  A    between atoms: _378  and  _380
REMARK  149  A    between atoms: _380  and  _381
REMARK  150  A    between atoms: _380  and  _383
REMARK  151  A    between atoms: _383  and  _384
REMARK  152  A    between atoms: _386  and  _388
REMARK  153  A    between atoms: _388  and  _389
REMARK  154  A    between atoms: _388  and  _391
REMARK  155  A    between atoms: _394  and  _396
REMARK  156  A    between atoms: _396  and  _397
REMARK  157  A    between atoms: _396  and  _399
REMARK  158  A    between atoms: _399  and  _400
REMARK  159  A    between atoms: _404  and  _405
REMARK  160  A    between atoms: _410  and  _412
REMARK  161  A    between atoms: _412  and  _413
REMARK  162  A    between atoms: _412  and  _415
REMARK  163  A    between atoms: _415  and  _416
REMARK  164  A    between atoms: _419  and  _421
REMARK  165  A    between atoms: _421  and  _422
REMARK  166  A    between atoms: _425  and  _427
REMARK  167  A    between atoms: _427  and  _428
REMARK  168  A    between atoms: _427  and  _430
REMARK  169  A    between atoms: _430  and  _431
REMARK  170  A    between atoms: _431  and  _432
REMARK  171  A    between atoms: _432  and  _433
REMARK  172  A    between atoms: _442  and  _444
REMARK  173  A    between atoms: _444  and  _445
REMARK  174  A    between atoms: _444  and  _447
REMARK  175  A    between atoms: _450  and  _452
REMARK  176  A    between atoms: _452  and  _453
REMARK  177  A    between atoms: _452  and  _455
REMARK  178  A    between atoms: _458  and  _460
REMARK  179  A    between atoms: _460  and  _461
REMARK  180  A    between atoms: _460  and  _463
REMARK  181  A    between atoms: _463  and  _464
REMARK  182  A    between atoms: _464  and  _465
REMARK  183  A    between atoms: _468  and  _470
REMARK  184  A    between atoms: _470  and  _471
REMARK  185  A    between atoms: _470  and  _473
REMARK  186  A    between atoms: _476  and  _478
REMARK  187  A    between atoms: _478  and  _479
REMARK  188  A    between atoms: _478  and  _481
REMARK  189  A    between atoms: _481  and  _482
REMARK  190  A    between atoms: _485  and  _487
REMARK  191  A    between atoms: _487  and  _488
REMARK  192  A    between atoms: _487  and  _490
REMARK  193  A    between atoms: _490  and  _491
REMARK  194  A    between atoms: _496  and  _497
REMARK  195  A    between atoms: _499  and  _501
REMARK  196  A    between atoms: _501  and  _502
REMARK  197  A    between atoms: _501  and  _504
REMARK  198  A    between atoms: _504  and  _505
REMARK  199  A    between atoms: _505  and  _506
REMARK  200  A    between atoms: _509  and  _510
REMARK  201  A    between atoms: _515  and  _517
REMARK  202  A    between atoms: _517  and  _518
REMARK  203  A    between atoms: _517  and  _520
REMARK  204  A    between atoms: _520  and  _521
REMARK  205  A    between atoms: _523  and  _525
REMARK  206  A    between atoms: _525  and  _526
REMARK  207  A    between atoms: _525  and  _528
REMARK  208  A    between atoms: _528  and  _529
REMARK  209  A    between atoms: _532  and  _534
REMARK  210  A    between atoms: _534  and  _535
REMARK  211  A    between atoms: _534  and  _537
REMARK  212  A    between atoms: _537  and  _538
REMARK  213  A    between atoms: _538  and  _539
REMARK  214  A    between atoms: _542  and  _544
REMARK  215  A    between atoms: _544  and  _545
REMARK  216  A    between atoms: _544  and  _547
REMARK  217  A    between atoms: _547  and  _548
REMARK  218  A    between atoms: _553  and  _554
REMARK  219  A    between atoms: _556  and  _558
REMARK  220  A    between atoms: _558  and  _559
REMARK  221  A    between atoms: _558  and  _561
REMARK  222  A    between atoms: _561  and  _562
REMARK                            x       y       z     vdW  Elec       q    Type
REMARK                         _______ _______ _______ _____ _____    ______ ____
ROOT
ATOM      1  O   HOH     1     -58.139 -50.214  32.599  0.00  0.00    +0.000 OA
ENDROOT
TORSDOF 0
REMARK  Name = ../refined-set-2016/4qac/4qac_pocket.pdb
REMARK  222 active torsions:
REMARK  status: ('A' for Active; 'I' for Inactive)
REMARK    1  A    between atoms: _1  and  _3
REMARK    2  A    between atoms: _3  and  _4
REMARK    3  A    between atoms: _3  and  _6
REMARK    4  A    between atoms: _6  and  _7
REMARK    5  A    between atoms: _10  and  _12
REMARK    6  A    between atoms: _12  and  _13
REMARK    7  A    between atoms: _12  and  _15
REMARK    8  A    between atoms: _15  and  _16
REMARK    9  A    between atoms: _19  and  _21
REMARK   10  A    between atoms: _21  and  _22
REMARK   11  A    between atoms: _25  and  _27
REMARK   12  A    between atoms: _27  and  _28
REMARK   13  A    between atoms: _31  and  _33
REMARK   14  A    between atoms: _33  and  _34
REMARK   15  A    between atoms: _33  and  _36
REMARK   16  A    between atoms: _36  and  _37
REMARK   17  A    between atoms: _42  and  _43
REMARK   18  A    between atoms: _45  and  _47
REMARK   19  A    between atoms: _47  and  _48
REMARK   20  A    between atoms: _47  and  _50
REMARK   21  A    between atoms: _50  and  _51
REMARK   22  A    between atoms: _56  and  _58
REMARK   23  A    between atoms: _58  and  _59
REMARK   24  A    between atoms: _62  and  _64
REMARK   25  A    between atoms: _64  and  _65
REMARK   26  A    between atoms: _64  and  _67
REMARK   27  A    between atoms: _67  and  _68
REMARK   28  A    between atoms: _68  and  _69
REMARK   29  A    between atoms: _69  and  _70
REMARK   30  A    between atoms: _70  and  _71
REMARK   31  A    between atoms: _75  and  _77
REMARK   32  A    between atoms: _77  and  _78
REMARK   33  A    between atoms: _77  and  _80
REMARK   34  A    between atoms: _80  and  _81
REMARK   35  A    between atoms: _84  and  _86
REMARK   36  A    between atoms: _86  and  _87
REMARK   37  A    between atoms: _89  and  _91
REMARK   38  A    between atoms: _91  and  _92
REMARK   39  A    between atoms: _91  and  _94
REMARK   40  A    between atoms: _94  and  _95
REMARK   41  A    between atoms: _97  and  _99
REMARK   42  A    between atoms: _99  and  _100
REMARK   43  A    between atoms: _99  and  _102
REMARK   44  A    between atoms: _102  and  _103
REMARK   45  A    between atoms: _113  and  _115
REMARK   46  A    between atoms: _115  and  _116
REMARK   47  A    between atoms: _115  and  _118
REMARK   48  A    between atoms: _118  and  _119
REMARK   49  A    between atoms: _122  and  _124
REMARK   50  A    between atoms: _124  and  _125
REMARK   51  A    between atoms: _124  and  _127
REMARK   52  A    between atoms: _127  and  _128
REMARK   53  A    between atoms: _133  and  _135
REMARK   54  A    between atoms: _135  and  _136
REMARK   55  A    between atoms: _135  and  _138
REMARK   56  A    between atoms: _138  and  _139
REMARK   57  A    between atoms: _144  and  _146
REMARK   58  A    between atoms: _146  and  _147
REMARK   59  A    between atoms: _146  and  _149
REMARK   60  A    between atoms: _152  and  _154
REMARK   61  A    between atoms: _154  and  _155
REMARK   62  A    between atoms: _154  and  _157
REMARK   63  A    between atoms: _157  and  _158
REMARK   64  A    between atoms: _161  and  _163
REMARK   65  A    between atoms: _163  and  _164
REMARK   66  A    between atoms: _163  and  _166
REMARK   67  A    between atoms: _166  and  _167
REMARK   68  A    between atoms: _172  and  _173
REMARK   69  A    between atoms: _175  and  _177
REMARK   70  A    between atoms: _177  and  _178
REMARK   71  A    between atoms: _177  and  _180
REMARK   72  A    between atoms: _180  and  _181
REMARK   73  A    between atoms: _183  and  _185
REMARK   74  A    between atoms: _192  and  _193
REMARK   75  A    between atoms: _197  and  _199
REMARK   76  A    between atoms: _199  and  _200
REMARK   77  A    between atoms: _199  and  _202
REMARK   78  A    between atoms: _202  and  _203
REMARK   79  A    between atoms: _203  and  _204
REMARK   80  A    between atoms: _207  and  _209
REMARK   81  A    between atoms: _209  and  _210
REMARK   82  A    between atoms: _213  and  _215
REMARK   83  A    between atoms: _215  and  _216
REMARK   84  A    between atoms: _215  and  _218
REMARK   85  A    between atoms: _218  and  _219
REMARK   86  A    between atoms: _224  and  _225
REMARK   87  A    between atoms: _227  and  _229
REMARK   88  A    between atoms: _229  and  _230
REMARK   89  A    between atoms: _229  and  _232
REMARK   90  A    between atoms: _232  and  _233
REMARK   91  A    between atoms: _233  and  _234
REMARK   92  A    between atoms: _237  and  _239
REMARK   93  A    between atoms: _239  and  _240
REMARK   94  A    between atoms: _239  and  _242
REMARK   95  A    between atoms: _242  and  _243
REMARK   96  A    between atoms: _246  and  _248
REMARK   97  A    between atoms: _248  and  _249
REMARK   98  A    between atoms: _248  and  _251
REMARK   99  A    between atoms: _251  and  _252
REMARK  100  A    between atoms: _252  and  _253
REMARK  101  A    between atoms: _253  and  _254
REMARK  102  A    between atoms: _254  and  _255
REMARK  103  A    between atoms: _259  and  _261
REMARK  104  A    between atoms: _261  and  _262
REMARK  105  A    between atoms: _261  and  _264
REMARK  106  A    between atoms: _264  and  _265
REMARK  107  A    between atoms: _271  and  _273
REMARK  108  A    between atoms: _273  and  _274
REMARK  109  A    between atoms: _273  and  _276
REMARK  110  A    between atoms: _276  and  _277
REMARK  111  A    between atoms: _280  and  _282
REMARK  112  A    between atoms: _282  and  _283
REMARK  113  A    between atoms: _282  and  _285
REMARK  114  A    between atoms: _288  and  _290
REMARK  115  A    between atoms: _290  and  _291
REMARK  116  A    between atoms: _290  and  _293
REMARK  117  A    between atoms: _293  and  _294
REMARK  118  A    between atoms: _300  and  _302
REMARK  119  A    between atoms: _302  and  _303
REMARK  120  A    between atoms: _302  and  _305
REMARK  121  A    between atoms: _305  and  _306
REMARK  122  A    between atoms: _316  and  _318
REMARK  123  A    between atoms: _318  and  _319
REMARK  124  A    between atoms: _318  and  _321
REMARK  125  A    between atoms: _321  and  _322
REMARK  126  A    between atoms: _322  and  _323
REMARK  127  A    between atoms: _328  and  _330
REMARK  128  A    between atoms: _330  and  _331
REMARK  129  A    between atoms: _330  and  _333
REMARK  130  A    between atoms: _333  and  _334
REMARK  131  A    between atoms: _334  and  _335
REMARK  132  A    between atoms: _340  and  _342
REMARK  133  A    between atoms: _342  and  _343
REMARK  134  A    between atoms: _342  and  _345
REMARK  135  A    between atoms: _345  and  _346
REMARK  136  A    between atoms: _349  and  _351
REMARK  137  A    between atoms: _351  and  _352
REMARK  138  A    between atoms: _351  and  _354
REMARK  139  A    between atoms: _354  and  _355
REMARK  140  A    between atoms: _358  and  _360
REMARK  141  A    between atoms: _360  and  _361
REMARK  142  A    between atoms: _360  and  _363
REMARK  143  A    between atoms: _363  and  _364
REMARK  144  A    between atoms: _364  and  _365
REMARK  145  A    between atoms: _370  and  _372
REMARK  146  A    between atoms: _372  and  _373
REMARK  147  A    between atoms: _372  and  _375
REMARK  148  A    between atoms: _378  and  _380
REMARK  149  A    between atoms: _380  and  _381
REMARK  150  A    between atoms: _380  and  _383
REMARK  151  A    between atoms: _383  and  _384
REMARK  152  A    between atoms: _386  and  _388
REMARK  153  A    between atoms: _388  and  _389
REMARK  154  A    between atoms: _388  and  _391
REMARK  155  A    between atoms: _394  and  _396
REMARK  156  A    between atoms: _396  and  _397
REMARK  157  A    between atoms: _396  and  _399
REMARK  158  A    between atoms: _399  and  _400
REMARK  159  A    between atoms: _404  and  _405
REMARK  160  A    between atoms: _410  and  _412
REMARK  161  A    between atoms: _412  and  _413
REMARK  162  A    between atoms: _412  and  _415
REMARK  163  A    between atoms: _415  and  _416
REMARK  164  A    between atoms: _419  and  _421
REMARK  165  A    between atoms: _421  and  _422
REMARK  166  A    between atoms: _425  and  _427
REMARK  167  A    between atoms: _427  and  _428
REMARK  168  A    between atoms: _427  and  _430
REMARK  169  A    between atoms: _430  and  _431
REMARK  170  A    between atoms: _431  and  _432
REMARK  171  A    between atoms: _432  and  _433
REMARK  172  A    between atoms: _442  and  _444
REMARK  173  A    between atoms: _444  and  _445
REMARK  174  A    between atoms: _444  and  _447
REMARK  175  A    between atoms: _450  and  _452
REMARK  176  A    between atoms: _452  and  _453
REMARK  177  A    between atoms: _452  and  _455
REMARK  178  A    between atoms: _458  and  _460
REMARK  179  A    between atoms: _460  and  _461
REMARK  180  A    between atoms: _460  and  _463
REMARK  181  A    between atoms: _463  and  _464
REMARK  182  A    between atoms: _464  and  _465
REMARK  183  A    between atoms: _468  and  _470
REMARK  184  A    between atoms: _470  and  _471
REMARK  185  A    between atoms: _470  and  _473
REMARK  186  A    between atoms: _476  and  _478
REMARK  187  A    between atoms: _478  and  _479
REMARK  188  A    between atoms: _478  and  _481
REMARK  189  A    between atoms: _481  and  _482
REMARK  190  A    between atoms: _485  and  _487
REMARK  191  A    between atoms: _487  and  _488
REMARK  192  A    between atoms: _487  and  _490
REMARK  193  A    between atoms: _490  and  _491
REMARK  194  A    between atoms: _496  and  _497
REMARK  195  A    between atoms: _499  and  _501
REMARK  196  A    between atoms: _501  and  _502
REMARK  197  A    between atoms: _501  and  _504
REMARK  198  A    between atoms: _504  and  _505
REMARK  199  A    between atoms: _505  and  _506
REMARK  200  A    between atoms: _509  and  _510
REMARK  201  A    between atoms: _515  and  _517
REMARK  202  A    between atoms: _517  and  _518
REMARK  203  A    between atoms: _517  and  _520
REMARK  204  A    between atoms: _520  and  _521
REMARK  205  A    between atoms: _523  and  _525
REMARK  206  A    between atoms: _525  and  _526
REMARK  207  A    between atoms: _525  and  _528
REMARK  208  A    between atoms: _528  and  _529
REMARK  209  A    between atoms: _532  and  _534
REMARK  210  A    between atoms: _534  and  _535
REMARK  211  A    between atoms: _534  and  _537
REMARK  212  A    between atoms: _537  and  _538
REMARK  213  A    between atoms: _538  and  _539
REMARK  214  A    between atoms: _542  and  _544
REMARK  215  A    between atoms: _544  and  _545
REMARK  216  A    between atoms: _544  and  _547
REMARK  217  A    between atoms: _547  and  _548
REMARK  218  A    between atoms: _553  and  _554
REMARK  219  A    between atoms: _556  and  _558
REMARK  220  A    between atoms: _558  and  _559
REMARK  221  A    between atoms: _558  and  _561
REMARK  222  A    between atoms: _561  and  _562
REMARK                            x       y       z     vdW  Elec       q    Type
REMARK                         _______ _______ _______ _____ _____    ______ ____
ROOT
ATOM      1  O   HOH     1     -39.393 -43.998  28.467  0.00  0.00    +0.000 OA
ENDROOT
TORSDOF 0
REMARK  Name = ../refined-set-2016/4qac/4qac_pocket.pdb
REMARK  222 active torsions:
REMARK  status: ('A' for Active; 'I' for Inactive)
REMARK    1  A    between atoms: _1  and  _3
REMARK    2  A    between atoms: _3  and  _4
REMARK    3  A    between atoms: _3  and  _6
REMARK    4  A    between atoms: _6  and  _7
REMARK    5  A    between atoms: _10  and  _12
REMARK    6  A    between atoms: _12  and  _13
REMARK    7  A    between atoms: _12  and  _15
REMARK    8  A    between atoms: _15  and  _16
REMARK    9  A    between atoms: _19  and  _21
REMARK   10  A    between atoms: _21  and  _22
REMARK   11  A    between atoms: _25  and  _27
REMARK   12  A    between atoms: _27  and  _28
REMARK   13  A    between atoms: _31  and  _33
REMARK   14  A    between atoms: _33  and  _34
REMARK   15  A    between atoms: _33  and  _36
REMARK   16  A    between atoms: _36  and  _37
REMARK   17  A    between atoms: _42  and  _43
REMARK   18  A    between atoms: _45  and  _47
REMARK   19  A    between atoms: _47  and  _48
REMARK   20  A    between atoms: _47  and  _50
REMARK   21  A    between atoms: _50  and  _51
REMARK   22  A    between atoms: _56  and  _58
REMARK   23  A    between atoms: _58  and  _59
REMARK   24  A    between atoms: _62  and  _64
REMARK   25  A    between atoms: _64  and  _65
REMARK   26  A    between atoms: _64  and  _67
REMARK   27  A    between atoms: _67  and  _68
REMARK   28  A    between atoms: _68  and  _69
REMARK   29  A    between atoms: _69  and  _70
REMARK   30  A    between atoms: _70  and  _71
REMARK   31  A    between atoms: _75  and  _77
REMARK   32  A    between atoms: _77  and  _78
REMARK   33  A    between atoms: _77  and  _80
REMARK   34  A    between atoms: _80  and  _81
REMARK   35  A    between atoms: _84  and  _86
REMARK   36  A    between atoms: _86  and  _87
REMARK   37  A    between atoms: _89  and  _91
REMARK   38  A    between atoms: _91  and  _92
REMARK   39  A    between atoms: _91  and  _94
REMARK   40  A    between atoms: _94  and  _95
REMARK   41  A    between atoms: _97  and  _99
REMARK   42  A    between atoms: _99  and  _100
REMARK   43  A    between atoms: _99  and  _102
REMARK   44  A    between atoms: _102  and  _103
REMARK   45  A    between atoms: _113  and  _115
REMARK   46  A    between atoms: _115  and  _116
REMARK   47  A    between atoms: _115  and  _118
REMARK   48  A    between atoms: _118  and  _119
REMARK   49  A    between atoms: _122  and  _124
REMARK   50  A    between atoms: _124  and  _125
REMARK   51  A    between atoms: _124  and  _127
REMARK   52  A    between atoms: _127  and  _128
REMARK   53  A    between atoms: _133  and  _135
REMARK   54  A    between atoms: _135  and  _136
REMARK   55  A    between atoms: _135  and  _138
REMARK   56  A    between atoms: _138  and  _139
REMARK   57  A    between atoms: _144  and  _146
REMARK   58  A    between atoms: _146  and  _147
REMARK   59  A    between atoms: _146  and  _149
REMARK   60  A    between atoms: _152  and  _154
REMARK   61  A    between atoms: _154  and  _155
REMARK   62  A    between atoms: _154  and  _157
REMARK   63  A    between atoms: _157  and  _158
REMARK   64  A    between atoms: _161  and  _163
REMARK   65  A    between atoms: _163  and  _164
REMARK   66  A    between atoms: _163  and  _166
REMARK   67  A    between atoms: _166  and  _167
REMARK   68  A    between atoms: _172  and  _173
REMARK   69  A    between atoms: _175  and  _177
REMARK   70  A    between atoms: _177  and  _178
REMARK   71  A    between atoms: _177  and  _180
REMARK   72  A    between atoms: _180  and  _181
REMARK   73  A    between atoms: _183  and  _185
REMARK   74  A    between atoms: _192  and  _193
REMARK   75  A    between atoms: _197  and  _199
REMARK   76  A    between atoms: _199  and  _200
REMARK   77  A    between atoms: _199  and  _202
REMARK   78  A    between atoms: _202  and  _203
REMARK   79  A    between atoms: _203  and  _204
REMARK   80  A    between atoms: _207  and  _209
REMARK   81  A    between atoms: _209  and  _210
REMARK   82  A    between atoms: _213  and  _215
REMARK   83  A    between atoms: _215  and  _216
REMARK   84  A    between atoms: _215  and  _218
REMARK   85  A    between atoms: _218  and  _219
REMARK   86  A    between atoms: _224  and  _225
REMARK   87  A    between atoms: _227  and  _229
REMARK   88  A    between atoms: _229  and  _230
REMARK   89  A    between atoms: _229  and  _232
REMARK   90  A    between atoms: _232  and  _233
REMARK   91  A    between atoms: _233  and  _234
REMARK   92  A    between atoms: _237  and  _239
REMARK   93  A    between atoms: _239  and  _240
REMARK   94  A    between atoms: _239  and  _242
REMARK   95  A    between atoms: _242  and  _243
REMARK   96  A    between atoms: _246  and  _248
REMARK   97  A    between atoms: _248  and  _249
REMARK   98  A    between atoms: _248  and  _251
REMARK   99  A    between atoms: _251  and  _252
REMARK  100  A    between atoms: _252  and  _253
REMARK  101  A    between atoms: _253  and  _254
REMARK  102  A    between atoms: _254  and  _255
REMARK  103  A    between atoms: _259  and  _261
REMARK  104  A    between atoms: _261  and  _262
REMARK  105  A    between atoms: _261  and  _264
REMARK  106  A    between atoms: _264  and  _265
REMARK  107  A    between atoms: _271  and  _273
REMARK  108  A    between atoms: _273  and  _274
REMARK  109  A    between atoms: _273  and  _276
REMARK  110  A    between atoms: _276  and  _277
REMARK  111  A    between atoms: _280  and  _282
REMARK  112  A    between atoms: _282  and  _283
REMARK  113  A    between atoms: _282  and  _285
REMARK  114  A    between atoms: _288  and  _290
REMARK  115  A    between atoms: _290  and  _291
REMARK  116  A    between atoms: _290  and  _293
REMARK  117  A    between atoms: _293  and  _294
REMARK  118  A    between atoms: _300  and  _302
REMARK  119  A    between atoms: _302  and  _303
REMARK  120  A    between atoms: _302  and  _305
REMARK  121  A    between atoms: _305  and  _306
REMARK  122  A    between atoms: _316  and  _318
REMARK  123  A    between atoms: _318  and  _319
REMARK  124  A    between atoms: _318  and  _321
REMARK  125  A    between atoms: _321  and  _322
REMARK  126  A    between atoms: _322  and  _323
REMARK  127  A    between atoms: _328  and  _330
REMARK  128  A    between atoms: _330  and  _331
REMARK  129  A    between atoms: _330  and  _333
REMARK  130  A    between atoms: _333  and  _334
REMARK  131  A    between atoms: _334  and  _335
REMARK  132  A    between atoms: _340  and  _342
REMARK  133  A    between atoms: _342  and  _343
REMARK  134  A    between atoms: _342  and  _345
REMARK  135  A    between atoms: _345  and  _346
REMARK  136  A    between atoms: _349  and  _351
REMARK  137  A    between atoms: _351  and  _352
REMARK  138  A    between atoms: _351  and  _354
REMARK  139  A    between atoms: _354  and  _355
REMARK  140  A    between atoms: _358  and  _360
REMARK  141  A    between atoms: _360  and  _361
REMARK  142  A    between atoms: _360  and  _363
REMARK  143  A    between atoms: _363  and  _364
REMARK  144  A    between atoms: _364  and  _365
REMARK  145  A    between atoms: _370  and  _372
REMARK  146  A    between atoms: _372  and  _373
REMARK  147  A    between atoms: _372  and  _375
REMARK  148  A    between atoms: _378  and  _380
REMARK  149  A    between atoms: _380  and  _381
REMARK  150  A    between atoms: _380  and  _383
REMARK  151  A    between atoms: _383  and  _384
REMARK  152  A    between atoms: _386  and  _388
REMARK  153  A    between atoms: _388  and  _389
REMARK  154  A    between atoms: _388  and  _391
REMARK  155  A    between atoms: _394  and  _396
REMARK  156  A    between atoms: _396  and  _397
REMARK  157  A    between atoms: _396  and  _399
REMARK  158  A    between atoms: _399  and  _400
REMARK  159  A    between atoms: _404  and  _405
REMARK  160  A    between atoms: _410  and  _412
REMARK  161  A    between atoms: _412  and  _413
REMARK  162  A    between atoms: _412  and  _415
REMARK  163  A    between atoms: _415  and  _416
REMARK  164  A    between atoms: _419  and  _421
REMARK  165  A    between atoms: _421  and  _422
REMARK  166  A    between atoms: _425  and  _427
REMARK  167  A    between atoms: _427  and  _428
REMARK  168  A    between atoms: _427  and  _430
REMARK  169  A    between atoms: _430  and  _431
REMARK  170  A    between atoms: _431  and  _432
REMARK  171  A    between atoms: _432  and  _433
REMARK  172  A    between atoms: _442  and  _444
REMARK  173  A    between atoms: _444  and  _445
REMARK  174  A    between atoms: _444  and  _447
REMARK  175  A    between atoms: _450  and  _452
REMARK  176  A    between atoms: _452  and  _453
REMARK  177  A    between atoms: _452  and  _455
REMARK  178  A    between atoms: _458  and  _460
REMARK  179  A    between atoms: _460  and  _461
REMARK  180  A    between atoms: _460  and  _463
REMARK  181  A    between atoms: _463  and  _464
REMARK  182  A    between atoms: _464  and  _465
REMARK  183  A    between atoms: _468  and  _470
REMARK  184  A    between atoms: _470  and  _471
REMARK  185  A    between atoms: _470  and  _473
REMARK  186  A    between atoms: _476  and  _478
REMARK  187  A    between atoms: _478  and  _479
REMARK  188  A    between atoms: _478  and  _481
REMARK  189  A    between atoms: _481  and  _482
REMARK  190  A    between atoms: _485  and  _487
REMARK  191  A    between atoms: _487  and  _488
REMARK  192  A    between atoms: _487  and  _490
REMARK  193  A    between atoms: _490  and  _491
REMARK  194  A    between atoms: _496  and  _497
REMARK  195  A    between atoms: _499  and  _501
REMARK  196  A    between atoms: _501  and  _502
REMARK  197  A    between atoms: _501  and  _504
REMARK  198  A    between atoms: _504  and  _505
REMARK  199  A    between atoms: _505  and  _506
REMARK  200  A    between atoms: _509  and  _510
REMARK  201  A    between atoms: _515  and  _517
REMARK  202  A    between atoms: _517  and  _518
REMARK  203  A    between atoms: _517  and  _520
REMARK  204  A    between atoms: _520  and  _521
REMARK  205  A    between atoms: _523  and  _525
REMARK  206  A    between atoms: _525  and  _526
REMARK  207  A    between atoms: _525  and  _528
REMARK  208  A    between atoms: _528  and  _529
REMARK  209  A    between atoms: _532  and  _534
REMARK  210  A    between atoms: _534  and  _535
REMARK  211  A    between atoms: _534  and  _537
REMARK  212  A    between atoms: _537  and  _538
REMARK  213  A    between atoms: _538  and  _539
REMARK  214  A    between atoms: _542  and  _544
REMARK  215  A    between atoms: _544  and  _545
REMARK  216  A    between atoms: _544  and  _547
REMARK  217  A    between atoms: _547  and  _548
REMARK  218  A    between atoms: _553  and  _554
REMARK  219  A    between atoms: _556  and  _558
REMARK  220  A    between atoms: _558  and  _559
REMARK  221  A    between atoms: _558  and  _561
REMARK  222  A    between atoms: _561  and  _562
REMARK                            x       y       z     vdW  Elec       q    Type
REMARK                         _______ _______ _______ _____ _____    ______ ____
ROOT
ATOM      1  O   HOH     1     -54.540 -41.591  33.746  0.00  0.00    +0.000 OA
ENDROOT
TORSDOF 0
