REMARK  Name = ../refined-set-2016/3bl0/3bl0_pocket.pdb
REMARK  142 active torsions:
REMARK  status: ('A' for Active; 'I' for Inactive)
REMARK    1  A    between atoms: _1  and  _3
REMARK    2  A    between atoms: _3  and  _4
REMARK    3  A    between atoms: _3  and  _6
REMARK    4  A    between atoms: _6  and  _7
REMARK    5  A    between atoms: _17  and  _19
REMARK    6  A    between atoms: _19  and  _20
REMARK    7  A    between atoms: _19  and  _22
REMARK    8  A    between atoms: _22  and  _23
REMARK    9  A    between atoms: _28  and  _29
REMARK   10  A    between atoms: _31  and  _33
REMARK   11  A    between atoms: _33  and  _34
REMARK   12  A    between atoms: _33  and  _36
REMARK   13  A    between atoms: _36  and  _37
REMARK   14  A    between atoms: _40  and  _41
REMARK   15  A    between atoms: _46  and  _48
REMARK   16  A    between atoms: _48  and  _49
REMARK   17  A    between atoms: _48  and  _51
REMARK   18  A    between atoms: _51  and  _52
REMARK   19  A    between atoms: _57  and  _59
REMARK   20  A    between atoms: _59  and  _60
REMARK   21  A    between atoms: _63  and  _65
REMARK   22  A    between atoms: _65  and  _66
REMARK   23  A    between atoms: _65  and  _68
REMARK   24  A    between atoms: _68  and  _69
REMARK   25  A    between atoms: _74  and  _76
REMARK   26  A    between atoms: _76  and  _77
REMARK   27  A    between atoms: _76  and  _79
REMARK   28  A    between atoms: _79  and  _80
REMARK   29  A    between atoms: _83  and  _85
REMARK   30  A    between atoms: _85  and  _86
REMARK   31  A    between atoms: _85  and  _88
REMARK   32  A    between atoms: _88  and  _89
REMARK   33  A    between atoms: _89  and  _90
REMARK   34  A    between atoms: _95  and  _97
REMARK   35  A    between atoms: _97  and  _98
REMARK   36  A    between atoms: _97  and  _100
REMARK   37  A    between atoms: _100  and  _101
REMARK   38  A    between atoms: _107  and  _109
REMARK   39  A    between atoms: _120  and  _123
REMARK   40  A    between atoms: _123  and  _124
REMARK   41  A    between atoms: _132  and  _133
REMARK   42  A    between atoms: _141  and  _143
REMARK   43  A    between atoms: _143  and  _144
REMARK   44  A    between atoms: _143  and  _146
REMARK   45  A    between atoms: _146  and  _147
REMARK   46  A    between atoms: _147  and  _148
REMARK   47  A    between atoms: _151  and  _153
REMARK   48  A    between atoms: _153  and  _154
REMARK   49  A    between atoms: _153  and  _156
REMARK   50  A    between atoms: _156  and  _157
REMARK   51  A    between atoms: _162  and  _164
REMARK   52  A    between atoms: _164  and  _165
REMARK   53  A    between atoms: _164  and  _167
REMARK   54  A    between atoms: _167  and  _168
REMARK   55  A    between atoms: _168  and  _169
REMARK   56  A    between atoms: _172  and  _174
REMARK   57  A    between atoms: _174  and  _175
REMARK   58  A    between atoms: _174  and  _177
REMARK   59  A    between atoms: _177  and  _178
REMARK   60  A    between atoms: _181  and  _183
REMARK   61  A    between atoms: _183  and  _184
REMARK   62  A    between atoms: _183  and  _186
REMARK   63  A    between atoms: _186  and  _187
REMARK   64  A    between atoms: _188  and  ZN_407
REMARK   65  A    between atoms: _192  and  _194
REMARK   66  A    between atoms: _194  and  _195
REMARK   67  A    between atoms: _194  and  _197
REMARK   68  A    between atoms: _197  and  _198
REMARK   69  A    between atoms: _201  and  _203
REMARK   70  A    between atoms: _203  and  _204
REMARK   71  A    between atoms: _203  and  _206
REMARK   72  A    between atoms: _209  and  _211
REMARK   73  A    between atoms: _211  and  _212
REMARK   74  A    between atoms: _211  and  _214
REMARK   75  A    between atoms: _214  and  _215
REMARK   76  A    between atoms: _220  and  _222
REMARK   77  A    between atoms: _222  and  _223
REMARK   78  A    between atoms: _222  and  _225
REMARK   79  A    between atoms: _225  and  _226
REMARK   80  A    between atoms: _236  and  _238
REMARK   81  A    between atoms: _238  and  _239
REMARK   82  A    between atoms: _238  and  _241
REMARK   83  A    between atoms: _241  and  _242
REMARK   84  A    between atoms: _248  and  _250
REMARK   85  A    between atoms: _250  and  _251
REMARK   86  A    between atoms: _250  and  _253
REMARK   87  A    between atoms: _256  and  _258
REMARK   88  A    between atoms: _258  and  _259
REMARK   89  A    between atoms: _258  and  _261
REMARK   90  A    between atoms: _261  and  _262
REMARK   91  A    between atoms: _265  and  _267
REMARK   92  A    between atoms: _267  and  _268
REMARK   93  A    between atoms: _271  and  _273
REMARK   94  A    between atoms: _273  and  _274
REMARK   95  A    between atoms: _273  and  _276
REMARK   96  A    between atoms: _279  and  _281
REMARK   97  A    between atoms: _281  and  _282
REMARK   98  A    between atoms: _281  and  _284
REMARK   99  A    between atoms: _284  and  _285
REMARK  100  A    between atoms: _288  and  _290
REMARK  101  A    between atoms: _290  and  _291
REMARK  102  A    between atoms: _290  and  _293
REMARK  103  A    between atoms: _293  and  _294
REMARK  104  A    between atoms: _296  and  _298
REMARK  105  A    between atoms: _298  and  _299
REMARK  106  A    between atoms: _298  and  _301
REMARK  107  A    between atoms: _301  and  _302
REMARK  108  A    between atoms: _305  and  _307
REMARK  109  A    between atoms: _307  and  _308
REMARK  110  A    between atoms: _307  and  _310
REMARK  111  A    between atoms: _310  and  _311
REMARK  112  A    between atoms: _314  and  _316
REMARK  113  A    between atoms: _316  and  _317
REMARK  114  A    between atoms: _316  and  _319
REMARK  115  A    between atoms: _319  and  _320
REMARK  116  A    between atoms: _324  and  _325
REMARK  117  A    between atoms: _331  and  _332
REMARK  118  A    between atoms: _337  and  _339
REMARK  119  A    between atoms: _339  and  _340
REMARK  120  A    between atoms: _339  and  _342
REMARK  121  A    between atoms: _342  and  _343
REMARK  122  A    between atoms: _346  and  _348
REMARK  123  A    between atoms: _348  and  _349
REMARK  124  A    between atoms: _348  and  _351
REMARK  125  A    between atoms: _351  and  _352
REMARK  126  A    between atoms: _355  and  _357
REMARK  127  A    between atoms: _357  and  _358
REMARK  128  A    between atoms: _357  and  _360
REMARK  129  A    between atoms: _363  and  _365
REMARK  130  A    between atoms: _365  and  _366
REMARK  131  A    between atoms: _365  and  _368
REMARK  132  A    between atoms: _368  and  _369
REMARK  133  A    between atoms: _379  and  _381
REMARK  134  A    between atoms: _381  and  _382
REMARK  135  A    between atoms: _381  and  _384
REMARK  136  A    between atoms: _384  and  _385
REMARK  137  A    between atoms: _390  and  _392
REMARK  138  A    between atoms: _392  and  _393
REMARK  139  A    between atoms: _392  and  _395
REMARK  140  A    between atoms: _395  and  _396
REMARK  141  A    between atoms: _396  and  _397
REMARK  142  A    between atoms: _397  and  _398
REMARK                            x       y       z     vdW  Elec       q    Type
REMARK                         _______ _______ _______ _____ _____    ______ ____
ROOT
ATOM      1  CG  TRP A   1       5.399   0.087  11.980  0.00  0.00    -0.002 A 
ATOM      2  CD2 TRP A   1       4.094  -0.512  12.006  0.00  0.00    +0.013 A 
ATOM      3  CE3 TRP A   1       3.617  -1.796  12.312  0.00  0.00    +0.001 A 
ATOM      4  CZ3 TRP A   1       2.249  -2.042  12.218  0.00  0.00    +0.000 A 
ATOM      5  CH2 TRP A   1       1.356  -1.031  11.821  0.00  0.00    +0.001 A 
ATOM      6  CZ2 TRP A   1       1.794   0.235  11.513  0.00  0.00    +0.017 A 
ATOM      7  CE2 TRP A   1       3.170   0.483  11.608  0.00  0.00    +0.056 A 
ATOM      8  NE1 TRP A   1       3.881   1.627  11.359  0.00  0.00    -0.352 N 
ATOM      9  HE1 TRP A   1       3.477   2.532  11.045  0.00  0.00    +0.166 HD
ATOM     10  CD1 TRP A   1       5.214   1.386  11.591  0.00  0.00    +0.068 A 
ENDROOT
BRANCH   1  11
ATOM     11  CB  TRP A   1       6.706  -0.583  12.336  0.00  0.00    +0.053 C 
BRANCH  11  12
ATOM     12  CA  TRP A   1       7.391  -1.338  11.184  0.00  0.00    +0.137 C 
BRANCH  12  13
ATOM     13  N   TRP A   1       8.117  -0.406  10.319  0.00  0.00    -0.239 NA
ATOM     14  H   TRP A   1       7.980   0.615  10.459  0.00  0.00    +0.142 HD
ENDBRANCH  12  13
BRANCH  12  15
ATOM     15  C   TRP A   1       6.405  -2.236  10.427  0.00  0.00    +0.224 C 
ATOM     16  O   TRP A   1       5.793  -1.813   9.445  0.00  0.00    -0.287 OA
ENDBRANCH  12  15
ENDBRANCH  11  12
ENDBRANCH   1  11
TORSDOF 4
REMARK  Name = ../refined-set-2016/3bl0/3bl0_pocket.pdb
REMARK  142 active torsions:
REMARK  status: ('A' for Active; 'I' for Inactive)
REMARK    1  A    between atoms: _1  and  _3
REMARK    2  A    between atoms: _3  and  _4
REMARK    3  A    between atoms: _3  and  _6
REMARK    4  A    between atoms: _6  and  _7
REMARK    5  A    between atoms: _17  and  _19
REMARK    6  A    between atoms: _19  and  _20
REMARK    7  A    between atoms: _19  and  _22
REMARK    8  A    between atoms: _22  and  _23
REMARK    9  A    between atoms: _28  and  _29
REMARK   10  A    between atoms: _31  and  _33
REMARK   11  A    between atoms: _33  and  _34
REMARK   12  A    between atoms: _33  and  _36
REMARK   13  A    between atoms: _36  and  _37
REMARK   14  A    between atoms: _40  and  _41
REMARK   15  A    between atoms: _46  and  _48
REMARK   16  A    between atoms: _48  and  _49
REMARK   17  A    between atoms: _48  and  _51
REMARK   18  A    between atoms: _51  and  _52
REMARK   19  A    between atoms: _57  and  _59
REMARK   20  A    between atoms: _59  and  _60
REMARK   21  A    between atoms: _63  and  _65
REMARK   22  A    between atoms: _65  and  _66
REMARK   23  A    between atoms: _65  and  _68
REMARK   24  A    between atoms: _68  and  _69
REMARK   25  A    between atoms: _74  and  _76
REMARK   26  A    between atoms: _76  and  _77
REMARK   27  A    between atoms: _76  and  _79
REMARK   28  A    between atoms: _79  and  _80
REMARK   29  A    between atoms: _83  and  _85
REMARK   30  A    between atoms: _85  and  _86
REMARK   31  A    between atoms: _85  and  _88
REMARK   32  A    between atoms: _88  and  _89
REMARK   33  A    between atoms: _89  and  _90
REMARK   34  A    between atoms: _95  and  _97
REMARK   35  A    between atoms: _97  and  _98
REMARK   36  A    between atoms: _97  and  _100
REMARK   37  A    between atoms: _100  and  _101
REMARK   38  A    between atoms: _107  and  _109
REMARK   39  A    between atoms: _120  and  _123
REMARK   40  A    between atoms: _123  and  _124
REMARK   41  A    between atoms: _132  and  _133
REMARK   42  A    between atoms: _141  and  _143
REMARK   43  A    between atoms: _143  and  _144
REMARK   44  A    between atoms: _143  and  _146
REMARK   45  A    between atoms: _146  and  _147
REMARK   46  A    between atoms: _147  and  _148
REMARK   47  A    between atoms: _151  and  _153
REMARK   48  A    between atoms: _153  and  _154
REMARK   49  A    between atoms: _153  and  _156
REMARK   50  A    between atoms: _156  and  _157
REMARK   51  A    between atoms: _162  and  _164
REMARK   52  A    between atoms: _164  and  _165
REMARK   53  A    between atoms: _164  and  _167
REMARK   54  A    between atoms: _167  and  _168
REMARK   55  A    between atoms: _168  and  _169
REMARK   56  A    between atoms: _172  and  _174
REMARK   57  A    between atoms: _174  and  _175
REMARK   58  A    between atoms: _174  and  _177
REMARK   59  A    between atoms: _177  and  _178
REMARK   60  A    between atoms: _181  and  _183
REMARK   61  A    between atoms: _183  and  _184
REMARK   62  A    between atoms: _183  and  _186
REMARK   63  A    between atoms: _186  and  _187
REMARK   64  A    between atoms: _188  and  ZN_407
REMARK   65  A    between atoms: _192  and  _194
REMARK   66  A    between atoms: _194  and  _195
REMARK   67  A    between atoms: _194  and  _197
REMARK   68  A    between atoms: _197  and  _198
REMARK   69  A    between atoms: _201  and  _203
REMARK   70  A    between atoms: _203  and  _204
REMARK   71  A    between atoms: _203  and  _206
REMARK   72  A    between atoms: _209  and  _211
REMARK   73  A    between atoms: _211  and  _212
REMARK   74  A    between atoms: _211  and  _214
REMARK   75  A    between atoms: _214  and  _215
REMARK   76  A    between atoms: _220  and  _222
REMARK   77  A    between atoms: _222  and  _223
REMARK   78  A    between atoms: _222  and  _225
REMARK   79  A    between atoms: _225  and  _226
REMARK   80  A    between atoms: _236  and  _238
REMARK   81  A    between atoms: _238  and  _239
REMARK   82  A    between atoms: _238  and  _241
REMARK   83  A    between atoms: _241  and  _242
REMARK   84  A    between atoms: _248  and  _250
REMARK   85  A    between atoms: _250  and  _251
REMARK   86  A    between atoms: _250  and  _253
REMARK   87  A    between atoms: _256  and  _258
REMARK   88  A    between atoms: _258  and  _259
REMARK   89  A    between atoms: _258  and  _261
REMARK   90  A    between atoms: _261  and  _262
REMARK   91  A    between atoms: _265  and  _267
REMARK   92  A    between atoms: _267  and  _268
REMARK   93  A    between atoms: _271  and  _273
REMARK   94  A    between atoms: _273  and  _274
REMARK   95  A    between atoms: _273  and  _276
REMARK   96  A    between atoms: _279  and  _281
REMARK   97  A    between atoms: _281  and  _282
REMARK   98  A    between atoms: _281  and  _284
REMARK   99  A    between atoms: _284  and  _285
REMARK  100  A    between atoms: _288  and  _290
REMARK  101  A    between atoms: _290  and  _291
REMARK  102  A    between atoms: _290  and  _293
REMARK  103  A    between atoms: _293  and  _294
REMARK  104  A    between atoms: _296  and  _298
REMARK  105  A    between atoms: _298  and  _299
REMARK  106  A    between atoms: _298  and  _301
REMARK  107  A    between atoms: _301  and  _302
REMARK  108  A    between atoms: _305  and  _307
REMARK  109  A    between atoms: _307  and  _308
REMARK  110  A    between atoms: _307  and  _310
REMARK  111  A    between atoms: _310  and  _311
REMARK  112  A    between atoms: _314  and  _316
REMARK  113  A    between atoms: _316  and  _317
REMARK  114  A    between atoms: _316  and  _319
REMARK  115  A    between atoms: _319  and  _320
REMARK  116  A    between atoms: _324  and  _325
REMARK  117  A    between atoms: _331  and  _332
REMARK  118  A    between atoms: _337  and  _339
REMARK  119  A    between atoms: _339  and  _340
REMARK  120  A    between atoms: _339  and  _342
REMARK  121  A    between atoms: _342  and  _343
REMARK  122  A    between atoms: _346  and  _348
REMARK  123  A    between atoms: _348  and  _349
REMARK  124  A    between atoms: _348  and  _351
REMARK  125  A    between atoms: _351  and  _352
REMARK  126  A    between atoms: _355  and  _357
REMARK  127  A    between atoms: _357  and  _358
REMARK  128  A    between atoms: _357  and  _360
REMARK  129  A    between atoms: _363  and  _365
REMARK  130  A    between atoms: _365  and  _366
REMARK  131  A    between atoms: _365  and  _368
REMARK  132  A    between atoms: _368  and  _369
REMARK  133  A    between atoms: _379  and  _381
REMARK  134  A    between atoms: _381  and  _382
REMARK  135  A    between atoms: _381  and  _384
REMARK  136  A    between atoms: _384  and  _385
REMARK  137  A    between atoms: _390  and  _392
REMARK  138  A    between atoms: _392  and  _393
REMARK  139  A    between atoms: _392  and  _395
REMARK  140  A    between atoms: _395  and  _396
REMARK  141  A    between atoms: _396  and  _397
REMARK  142  A    between atoms: _397  and  _398
REMARK                            x       y       z     vdW  Elec       q    Type
REMARK                         _______ _______ _______ _____ _____    ______ ____
ROOT
ATOM      1  CG  TYR A   1       1.877  -7.106  11.971  0.00  0.00    -0.020 A 
ATOM      2  CD2 TYR A   1       1.482  -7.066  13.310  0.00  0.00    -0.001 A 
ATOM      3  CE2 TYR A   1       0.638  -6.072  13.768  0.00  0.00    +0.036 A 
ATOM      4  CZ  TYR A   1       0.170  -5.116  12.885  0.00  0.00    +0.134 A 
ATOM      5  CE1 TYR A   1       0.541  -5.141  11.551  0.00  0.00    +0.036 A 
ATOM      6  CD1 TYR A   1       1.394  -6.131  11.107  0.00  0.00    -0.001 A 
ENDROOT
BRANCH   4   7
ATOM      7  OH  TYR A   1      -0.670  -4.127  13.332  0.00  0.00    -0.506 OA
ATOM      8  HH  TYR A   1      -0.908  -3.532  12.578  0.00  0.00    +0.292 HD
ENDBRANCH   4   7
BRANCH   1   9
ATOM      9  CB  TYR A   1       2.798  -8.186  11.471  0.00  0.00    +0.051 C 
BRANCH   9  10
ATOM     10  CA  TYR A   1       4.288  -7.854  11.638  0.00  0.00    +0.137 C 
BRANCH  10  11
ATOM     11  N   TYR A   1       4.671  -6.715  10.796  0.00  0.00    -0.239 NA
ATOM     12  H   TYR A   1       4.728  -6.850   9.766  0.00  0.00    +0.142 HD
ENDBRANCH  10  11
BRANCH  10  13
ATOM     13  C   TYR A   1       5.105  -9.108  11.374  0.00  0.00    +0.224 C 
ATOM     14  O   TYR A   1       4.727 -10.207  11.809  0.00  0.00    -0.287 OA
ENDBRANCH  10  13
ENDBRANCH   9  10
ENDBRANCH   1   9
TORSDOF 5
REMARK  Name = ../refined-set-2016/3bl0/3bl0_pocket.pdb
REMARK  142 active torsions:
REMARK  status: ('A' for Active; 'I' for Inactive)
REMARK    1  A    between atoms: _1  and  _3
REMARK    2  A    between atoms: _3  and  _4
REMARK    3  A    between atoms: _3  and  _6
REMARK    4  A    between atoms: _6  and  _7
REMARK    5  A    between atoms: _17  and  _19
REMARK    6  A    between atoms: _19  and  _20
REMARK    7  A    between atoms: _19  and  _22
REMARK    8  A    between atoms: _22  and  _23
REMARK    9  A    between atoms: _28  and  _29
REMARK   10  A    between atoms: _31  and  _33
REMARK   11  A    between atoms: _33  and  _34
REMARK   12  A    between atoms: _33  and  _36
REMARK   13  A    between atoms: _36  and  _37
REMARK   14  A    between atoms: _40  and  _41
REMARK   15  A    between atoms: _46  and  _48
REMARK   16  A    between atoms: _48  and  _49
REMARK   17  A    between atoms: _48  and  _51
REMARK   18  A    between atoms: _51  and  _52
REMARK   19  A    between atoms: _57  and  _59
REMARK   20  A    between atoms: _59  and  _60
REMARK   21  A    between atoms: _63  and  _65
REMARK   22  A    between atoms: _65  and  _66
REMARK   23  A    between atoms: _65  and  _68
REMARK   24  A    between atoms: _68  and  _69
REMARK   25  A    between atoms: _74  and  _76
REMARK   26  A    between atoms: _76  and  _77
REMARK   27  A    between atoms: _76  and  _79
REMARK   28  A    between atoms: _79  and  _80
REMARK   29  A    between atoms: _83  and  _85
REMARK   30  A    between atoms: _85  and  _86
REMARK   31  A    between atoms: _85  and  _88
REMARK   32  A    between atoms: _88  and  _89
REMARK   33  A    between atoms: _89  and  _90
REMARK   34  A    between atoms: _95  and  _97
REMARK   35  A    between atoms: _97  and  _98
REMARK   36  A    between atoms: _97  and  _100
REMARK   37  A    between atoms: _100  and  _101
REMARK   38  A    between atoms: _107  and  _109
REMARK   39  A    between atoms: _120  and  _123
REMARK   40  A    between atoms: _123  and  _124
REMARK   41  A    between atoms: _132  and  _133
REMARK   42  A    between atoms: _141  and  _143
REMARK   43  A    between atoms: _143  and  _144
REMARK   44  A    between atoms: _143  and  _146
REMARK   45  A    between atoms: _146  and  _147
REMARK   46  A    between atoms: _147  and  _148
REMARK   47  A    between atoms: _151  and  _153
REMARK   48  A    between atoms: _153  and  _154
REMARK   49  A    between atoms: _153  and  _156
REMARK   50  A    between atoms: _156  and  _157
REMARK   51  A    between atoms: _162  and  _164
REMARK   52  A    between atoms: _164  and  _165
REMARK   53  A    between atoms: _164  and  _167
REMARK   54  A    between atoms: _167  and  _168
REMARK   55  A    between atoms: _168  and  _169
REMARK   56  A    between atoms: _172  and  _174
REMARK   57  A    between atoms: _174  and  _175
REMARK   58  A    between atoms: _174  and  _177
REMARK   59  A    between atoms: _177  and  _178
REMARK   60  A    between atoms: _181  and  _183
REMARK   61  A    between atoms: _183  and  _184
REMARK   62  A    between atoms: _183  and  _186
REMARK   63  A    between atoms: _186  and  _187
REMARK   64  A    between atoms: _188  and  ZN_407
REMARK   65  A    between atoms: _192  and  _194
REMARK   66  A    between atoms: _194  and  _195
REMARK   67  A    between atoms: _194  and  _197
REMARK   68  A    between atoms: _197  and  _198
REMARK   69  A    between atoms: _201  and  _203
REMARK   70  A    between atoms: _203  and  _204
REMARK   71  A    between atoms: _203  and  _206
REMARK   72  A    between atoms: _209  and  _211
REMARK   73  A    between atoms: _211  and  _212
REMARK   74  A    between atoms: _211  and  _214
REMARK   75  A    between atoms: _214  and  _215
REMARK   76  A    between atoms: _220  and  _222
REMARK   77  A    between atoms: _222  and  _223
REMARK   78  A    between atoms: _222  and  _225
REMARK   79  A    between atoms: _225  and  _226
REMARK   80  A    between atoms: _236  and  _238
REMARK   81  A    between atoms: _238  and  _239
REMARK   82  A    between atoms: _238  and  _241
REMARK   83  A    between atoms: _241  and  _242
REMARK   84  A    between atoms: _248  and  _250
REMARK   85  A    between atoms: _250  and  _251
REMARK   86  A    between atoms: _250  and  _253
REMARK   87  A    between atoms: _256  and  _258
REMARK   88  A    between atoms: _258  and  _259
REMARK   89  A    between atoms: _258  and  _261
REMARK   90  A    between atoms: _261  and  _262
REMARK   91  A    between atoms: _265  and  _267
REMARK   92  A    between atoms: _267  and  _268
REMARK   93  A    between atoms: _271  and  _273
REMARK   94  A    between atoms: _273  and  _274
REMARK   95  A    between atoms: _273  and  _276
REMARK   96  A    between atoms: _279  and  _281
REMARK   97  A    between atoms: _281  and  _282
REMARK   98  A    between atoms: _281  and  _284
REMARK   99  A    between atoms: _284  and  _285
REMARK  100  A    between atoms: _288  and  _290
REMARK  101  A    between atoms: _290  and  _291
REMARK  102  A    between atoms: _290  and  _293
REMARK  103  A    between atoms: _293  and  _294
REMARK  104  A    between atoms: _296  and  _298
REMARK  105  A    between atoms: _298  and  _299
REMARK  106  A    between atoms: _298  and  _301
REMARK  107  A    between atoms: _301  and  _302
REMARK  108  A    between atoms: _305  and  _307
REMARK  109  A    between atoms: _307  and  _308
REMARK  110  A    between atoms: _307  and  _310
REMARK  111  A    between atoms: _310  and  _311
REMARK  112  A    between atoms: _314  and  _316
REMARK  113  A    between atoms: _316  and  _317
REMARK  114  A    between atoms: _316  and  _319
REMARK  115  A    between atoms: _319  and  _320
REMARK  116  A    between atoms: _324  and  _325
REMARK  117  A    between atoms: _331  and  _332
REMARK  118  A    between atoms: _337  and  _339
REMARK  119  A    between atoms: _339  and  _340
REMARK  120  A    between atoms: _339  and  _342
REMARK  121  A    between atoms: _342  and  _343
REMARK  122  A    between atoms: _346  and  _348
REMARK  123  A    between atoms: _348  and  _349
REMARK  124  A    between atoms: _348  and  _351
REMARK  125  A    between atoms: _351  and  _352
REMARK  126  A    between atoms: _355  and  _357
REMARK  127  A    between atoms: _357  and  _358
REMARK  128  A    between atoms: _357  and  _360
REMARK  129  A    between atoms: _363  and  _365
REMARK  130  A    between atoms: _365  and  _366
REMARK  131  A    between atoms: _365  and  _368
REMARK  132  A    between atoms: _368  and  _369
REMARK  133  A    between atoms: _379  and  _381
REMARK  134  A    between atoms: _381  and  _382
REMARK  135  A    between atoms: _381  and  _384
REMARK  136  A    between atoms: _384  and  _385
REMARK  137  A    between atoms: _390  and  _392
REMARK  138  A    between atoms: _392  and  _393
REMARK  139  A    between atoms: _392  and  _395
REMARK  140  A    between atoms: _395  and  _396
REMARK  141  A    between atoms: _396  and  _397
REMARK  142  A    between atoms: _397  and  _398
REMARK                            x       y       z     vdW  Elec       q    Type
REMARK                         _______ _______ _______ _____ _____    ______ ____
ROOT
ATOM      1  C   SER A   1      -2.260  -3.089  23.198  0.00  0.00    +0.244 C 
ATOM      2  N   PRO A   2      -2.899  -4.250  22.972  0.00  0.00    -0.273 N 
ATOM      3  CA  PRO A   2      -4.051  -4.778  23.705  0.00  0.00    +0.140 C 
ATOM      4  CB  PRO A   2      -4.606  -5.802  22.719  0.00  0.00    +0.030 C 
ATOM      5  CG  PRO A   2      -3.361  -6.385  22.132  0.00  0.00    +0.024 C 
ATOM      6  CD  PRO A   2      -2.488  -5.168  21.895  0.00  0.00    +0.094 C 
ATOM      7  O   SER A   1      -1.308  -2.706  22.512  0.00  0.00    -0.273 OA
ENDROOT
BRANCH   3   8
ATOM      8  C   PRO A   2      -3.659  -5.464  25.032  0.00  0.00    +0.227 C 
ATOM      9  O   PRO A   2      -2.469  -5.525  25.374  0.00  0.00    -0.286 OA
ENDBRANCH   3   8
BRANCH   1  10
ATOM     10  CA  SER A   1      -2.776  -2.223  24.341  0.00  0.00    +0.175 C 
BRANCH  10  11
ATOM     11  N   SER A   1      -1.694  -1.400  24.845  0.00  0.00    -0.236 NA
ATOM     12  H   SER A   1      -1.131  -0.863  24.155  0.00  0.00    +0.142 HD
ENDBRANCH  10  11
BRANCH  10  13
ATOM     13  CB  SER A   1      -3.894  -1.333  23.812  0.00  0.00    +0.163 C 
BRANCH  13  14
ATOM     14  OG  SER A   1      -4.573  -0.678  24.865  0.00  0.00    -0.380 OA
ATOM     15  H   SER A   1      -4.968  -1.353  25.472  0.00  0.00    +0.211 HD
ENDBRANCH  13  14
ENDBRANCH  10  13
ENDBRANCH   1  10
TORSDOF 5
REMARK  Name = ../refined-set-2016/3bl0/3bl0_pocket.pdb
REMARK  142 active torsions:
REMARK  status: ('A' for Active; 'I' for Inactive)
REMARK    1  A    between atoms: _1  and  _3
REMARK    2  A    between atoms: _3  and  _4
REMARK    3  A    between atoms: _3  and  _6
REMARK    4  A    between atoms: _6  and  _7
REMARK    5  A    between atoms: _17  and  _19
REMARK    6  A    between atoms: _19  and  _20
REMARK    7  A    between atoms: _19  and  _22
REMARK    8  A    between atoms: _22  and  _23
REMARK    9  A    between atoms: _28  and  _29
REMARK   10  A    between atoms: _31  and  _33
REMARK   11  A    between atoms: _33  and  _34
REMARK   12  A    between atoms: _33  and  _36
REMARK   13  A    between atoms: _36  and  _37
REMARK   14  A    between atoms: _40  and  _41
REMARK   15  A    between atoms: _46  and  _48
REMARK   16  A    between atoms: _48  and  _49
REMARK   17  A    between atoms: _48  and  _51
REMARK   18  A    between atoms: _51  and  _52
REMARK   19  A    between atoms: _57  and  _59
REMARK   20  A    between atoms: _59  and  _60
REMARK   21  A    between atoms: _63  and  _65
REMARK   22  A    between atoms: _65  and  _66
REMARK   23  A    between atoms: _65  and  _68
REMARK   24  A    between atoms: _68  and  _69
REMARK   25  A    between atoms: _74  and  _76
REMARK   26  A    between atoms: _76  and  _77
REMARK   27  A    between atoms: _76  and  _79
REMARK   28  A    between atoms: _79  and  _80
REMARK   29  A    between atoms: _83  and  _85
REMARK   30  A    between atoms: _85  and  _86
REMARK   31  A    between atoms: _85  and  _88
REMARK   32  A    between atoms: _88  and  _89
REMARK   33  A    between atoms: _89  and  _90
REMARK   34  A    between atoms: _95  and  _97
REMARK   35  A    between atoms: _97  and  _98
REMARK   36  A    between atoms: _97  and  _100
REMARK   37  A    between atoms: _100  and  _101
REMARK   38  A    between atoms: _107  and  _109
REMARK   39  A    between atoms: _120  and  _123
REMARK   40  A    between atoms: _123  and  _124
REMARK   41  A    between atoms: _132  and  _133
REMARK   42  A    between atoms: _141  and  _143
REMARK   43  A    between atoms: _143  and  _144
REMARK   44  A    between atoms: _143  and  _146
REMARK   45  A    between atoms: _146  and  _147
REMARK   46  A    between atoms: _147  and  _148
REMARK   47  A    between atoms: _151  and  _153
REMARK   48  A    between atoms: _153  and  _154
REMARK   49  A    between atoms: _153  and  _156
REMARK   50  A    between atoms: _156  and  _157
REMARK   51  A    between atoms: _162  and  _164
REMARK   52  A    between atoms: _164  and  _165
REMARK   53  A    between atoms: _164  and  _167
REMARK   54  A    between atoms: _167  and  _168
REMARK   55  A    between atoms: _168  and  _169
REMARK   56  A    between atoms: _172  and  _174
REMARK   57  A    between atoms: _174  and  _175
REMARK   58  A    between atoms: _174  and  _177
REMARK   59  A    between atoms: _177  and  _178
REMARK   60  A    between atoms: _181  and  _183
REMARK   61  A    between atoms: _183  and  _184
REMARK   62  A    between atoms: _183  and  _186
REMARK   63  A    between atoms: _186  and  _187
REMARK   64  A    between atoms: _188  and  ZN_407
REMARK   65  A    between atoms: _192  and  _194
REMARK   66  A    between atoms: _194  and  _195
REMARK   67  A    between atoms: _194  and  _197
REMARK   68  A    between atoms: _197  and  _198
REMARK   69  A    between atoms: _201  and  _203
REMARK   70  A    between atoms: _203  and  _204
REMARK   71  A    between atoms: _203  and  _206
REMARK   72  A    between atoms: _209  and  _211
REMARK   73  A    between atoms: _211  and  _212
REMARK   74  A    between atoms: _211  and  _214
REMARK   75  A    between atoms: _214  and  _215
REMARK   76  A    between atoms: _220  and  _222
REMARK   77  A    between atoms: _222  and  _223
REMARK   78  A    between atoms: _222  and  _225
REMARK   79  A    between atoms: _225  and  _226
REMARK   80  A    between atoms: _236  and  _238
REMARK   81  A    between atoms: _238  and  _239
REMARK   82  A    between atoms: _238  and  _241
REMARK   83  A    between atoms: _241  and  _242
REMARK   84  A    between atoms: _248  and  _250
REMARK   85  A    between atoms: _250  and  _251
REMARK   86  A    between atoms: _250  and  _253
REMARK   87  A    between atoms: _256  and  _258
REMARK   88  A    between atoms: _258  and  _259
REMARK   89  A    between atoms: _258  and  _261
REMARK   90  A    between atoms: _261  and  _262
REMARK   91  A    between atoms: _265  and  _267
REMARK   92  A    between atoms: _267  and  _268
REMARK   93  A    between atoms: _271  and  _273
REMARK   94  A    between atoms: _273  and  _274
REMARK   95  A    between atoms: _273  and  _276
REMARK   96  A    between atoms: _279  and  _281
REMARK   97  A    between atoms: _281  and  _282
REMARK   98  A    between atoms: _281  and  _284
REMARK   99  A    between atoms: _284  and  _285
REMARK  100  A    between atoms: _288  and  _290
REMARK  101  A    between atoms: _290  and  _291
REMARK  102  A    between atoms: _290  and  _293
REMARK  103  A    between atoms: _293  and  _294
REMARK  104  A    between atoms: _296  and  _298
REMARK  105  A    between atoms: _298  and  _299
REMARK  106  A    between atoms: _298  and  _301
REMARK  107  A    between atoms: _301  and  _302
REMARK  108  A    between atoms: _305  and  _307
REMARK  109  A    between atoms: _307  and  _308
REMARK  110  A    between atoms: _307  and  _310
REMARK  111  A    between atoms: _310  and  _311
REMARK  112  A    between atoms: _314  and  _316
REMARK  113  A    between atoms: _316  and  _317
REMARK  114  A    between atoms: _316  and  _319
REMARK  115  A    between atoms: _319  and  _320
REMARK  116  A    between atoms: _324  and  _325
REMARK  117  A    between atoms: _331  and  _332
REMARK  118  A    between atoms: _337  and  _339
REMARK  119  A    between atoms: _339  and  _340
REMARK  120  A    between atoms: _339  and  _342
REMARK  121  A    between atoms: _342  and  _343
REMARK  122  A    between atoms: _346  and  _348
REMARK  123  A    between atoms: _348  and  _349
REMARK  124  A    between atoms: _348  and  _351
REMARK  125  A    between atoms: _351  and  _352
REMARK  126  A    between atoms: _355  and  _357
REMARK  127  A    between atoms: _357  and  _358
REMARK  128  A    between atoms: _357  and  _360
REMARK  129  A    between atoms: _363  and  _365
REMARK  130  A    between atoms: _365  and  _366
REMARK  131  A    between atoms: _365  and  _368
REMARK  132  A    between atoms: _368  and  _369
REMARK  133  A    between atoms: _379  and  _381
REMARK  134  A    between atoms: _381  and  _382
REMARK  135  A    between atoms: _381  and  _384
REMARK  136  A    between atoms: _384  and  _385
REMARK  137  A    between atoms: _390  and  _392
REMARK  138  A    between atoms: _392  and  _393
REMARK  139  A    between atoms: _392  and  _395
REMARK  140  A    between atoms: _395  and  _396
REMARK  141  A    between atoms: _396  and  _397
REMARK  142  A    between atoms: _397  and  _398
REMARK                            x       y       z     vdW  Elec       q    Type
REMARK                         _______ _______ _______ _____ _____    ______ ____
ROOT
ATOM      1  CB  ASN A   1      -2.514   1.783   5.345  0.00  0.00    +0.110 C 
ENDROOT
BRANCH   1   2
ATOM      2  CG  ASN A   1      -2.636   0.896   6.590  0.00  0.00    +0.221 C 
ATOM      3  ND2 ASN A   1      -2.868   1.533   7.737  0.00  0.00    -0.329 N 
ATOM      4 HD21 ASN A   1      -2.939   0.996   8.625  0.00  0.00    +0.145 HD
ATOM      5 HD22 ASN A   1      -2.978   2.567   7.744  0.00  0.00    +0.145 HD
ATOM      6  OD1 ASN A   1      -2.498  -0.327   6.530  0.00  0.00    -0.275 OA
ENDBRANCH   1   2
BRANCH   1   7
ATOM      7  CA  ASN A   1      -2.084   1.007   4.082  0.00  0.00    +0.142 C 
BRANCH   7   8
ATOM      8  N   ASN A   1      -3.184   0.191   3.580  0.00  0.00    -0.239 NA
ATOM      9  H   ASN A   1      -3.758  -0.365   4.245  0.00  0.00    +0.142 HD
ENDBRANCH   7   8
BRANCH   7  10
ATOM     10  C   ASN A   1      -0.817   0.179   4.309  0.00  0.00    +0.225 C 
ATOM     11  O   ASN A   1       0.124   0.642   4.941  0.00  0.00    -0.287 OA
ENDBRANCH   7  10
ENDBRANCH   1   7
TORSDOF 4
REMARK  Name = ../refined-set-2016/3bl0/3bl0_pocket.pdb
REMARK  142 active torsions:
REMARK  status: ('A' for Active; 'I' for Inactive)
REMARK    1  A    between atoms: _1  and  _3
REMARK    2  A    between atoms: _3  and  _4
REMARK    3  A    between atoms: _3  and  _6
REMARK    4  A    between atoms: _6  and  _7
REMARK    5  A    between atoms: _17  and  _19
REMARK    6  A    between atoms: _19  and  _20
REMARK    7  A    between atoms: _19  and  _22
REMARK    8  A    between atoms: _22  and  _23
REMARK    9  A    between atoms: _28  and  _29
REMARK   10  A    between atoms: _31  and  _33
REMARK   11  A    between atoms: _33  and  _34
REMARK   12  A    between atoms: _33  and  _36
REMARK   13  A    between atoms: _36  and  _37
REMARK   14  A    between atoms: _40  and  _41
REMARK   15  A    between atoms: _46  and  _48
REMARK   16  A    between atoms: _48  and  _49
REMARK   17  A    between atoms: _48  and  _51
REMARK   18  A    between atoms: _51  and  _52
REMARK   19  A    between atoms: _57  and  _59
REMARK   20  A    between atoms: _59  and  _60
REMARK   21  A    between atoms: _63  and  _65
REMARK   22  A    between atoms: _65  and  _66
REMARK   23  A    between atoms: _65  and  _68
REMARK   24  A    between atoms: _68  and  _69
REMARK   25  A    between atoms: _74  and  _76
REMARK   26  A    between atoms: _76  and  _77
REMARK   27  A    between atoms: _76  and  _79
REMARK   28  A    between atoms: _79  and  _80
REMARK   29  A    between atoms: _83  and  _85
REMARK   30  A    between atoms: _85  and  _86
REMARK   31  A    between atoms: _85  and  _88
REMARK   32  A    between atoms: _88  and  _89
REMARK   33  A    between atoms: _89  and  _90
REMARK   34  A    between atoms: _95  and  _97
REMARK   35  A    between atoms: _97  and  _98
REMARK   36  A    between atoms: _97  and  _100
REMARK   37  A    between atoms: _100  and  _101
REMARK   38  A    between atoms: _107  and  _109
REMARK   39  A    between atoms: _120  and  _123
REMARK   40  A    between atoms: _123  and  _124
REMARK   41  A    between atoms: _132  and  _133
REMARK   42  A    between atoms: _141  and  _143
REMARK   43  A    between atoms: _143  and  _144
REMARK   44  A    between atoms: _143  and  _146
REMARK   45  A    between atoms: _146  and  _147
REMARK   46  A    between atoms: _147  and  _148
REMARK   47  A    between atoms: _151  and  _153
REMARK   48  A    between atoms: _153  and  _154
REMARK   49  A    between atoms: _153  and  _156
REMARK   50  A    between atoms: _156  and  _157
REMARK   51  A    between atoms: _162  and  _164
REMARK   52  A    between atoms: _164  and  _165
REMARK   53  A    between atoms: _164  and  _167
REMARK   54  A    between atoms: _167  and  _168
REMARK   55  A    between atoms: _168  and  _169
REMARK   56  A    between atoms: _172  and  _174
REMARK   57  A    between atoms: _174  and  _175
REMARK   58  A    between atoms: _174  and  _177
REMARK   59  A    between atoms: _177  and  _178
REMARK   60  A    between atoms: _181  and  _183
REMARK   61  A    between atoms: _183  and  _184
REMARK   62  A    between atoms: _183  and  _186
REMARK   63  A    between atoms: _186  and  _187
REMARK   64  A    between atoms: _188  and  ZN_407
REMARK   65  A    between atoms: _192  and  _194
REMARK   66  A    between atoms: _194  and  _195
REMARK   67  A    between atoms: _194  and  _197
REMARK   68  A    between atoms: _197  and  _198
REMARK   69  A    between atoms: _201  and  _203
REMARK   70  A    between atoms: _203  and  _204
REMARK   71  A    between atoms: _203  and  _206
REMARK   72  A    between atoms: _209  and  _211
REMARK   73  A    between atoms: _211  and  _212
REMARK   74  A    between atoms: _211  and  _214
REMARK   75  A    between atoms: _214  and  _215
REMARK   76  A    between atoms: _220  and  _222
REMARK   77  A    between atoms: _222  and  _223
REMARK   78  A    between atoms: _222  and  _225
REMARK   79  A    between atoms: _225  and  _226
REMARK   80  A    between atoms: _236  and  _238
REMARK   81  A    between atoms: _238  and  _239
REMARK   82  A    between atoms: _238  and  _241
REMARK   83  A    between atoms: _241  and  _242
REMARK   84  A    between atoms: _248  and  _250
REMARK   85  A    between atoms: _250  and  _251
REMARK   86  A    between atoms: _250  and  _253
REMARK   87  A    between atoms: _256  and  _258
REMARK   88  A    between atoms: _258  and  _259
REMARK   89  A    between atoms: _258  and  _261
REMARK   90  A    between atoms: _261  and  _262
REMARK   91  A    between atoms: _265  and  _267
REMARK   92  A    between atoms: _267  and  _268
REMARK   93  A    between atoms: _271  and  _273
REMARK   94  A    between atoms: _273  and  _274
REMARK   95  A    between atoms: _273  and  _276
REMARK   96  A    between atoms: _279  and  _281
REMARK   97  A    between atoms: _281  and  _282
REMARK   98  A    between atoms: _281  and  _284
REMARK   99  A    between atoms: _284  and  _285
REMARK  100  A    between atoms: _288  and  _290
REMARK  101  A    between atoms: _290  and  _291
REMARK  102  A    between atoms: _290  and  _293
REMARK  103  A    between atoms: _293  and  _294
REMARK  104  A    between atoms: _296  and  _298
REMARK  105  A    between atoms: _298  and  _299
REMARK  106  A    between atoms: _298  and  _301
REMARK  107  A    between atoms: _301  and  _302
REMARK  108  A    between atoms: _305  and  _307
REMARK  109  A    between atoms: _307  and  _308
REMARK  110  A    between atoms: _307  and  _310
REMARK  111  A    between atoms: _310  and  _311
REMARK  112  A    between atoms: _314  and  _316
REMARK  113  A    between atoms: _316  and  _317
REMARK  114  A    between atoms: _316  and  _319
REMARK  115  A    between atoms: _319  and  _320
REMARK  116  A    between atoms: _324  and  _325
REMARK  117  A    between atoms: _331  and  _332
REMARK  118  A    between atoms: _337  and  _339
REMARK  119  A    between atoms: _339  and  _340
REMARK  120  A    between atoms: _339  and  _342
REMARK  121  A    between atoms: _342  and  _343
REMARK  122  A    between atoms: _346  and  _348
REMARK  123  A    between atoms: _348  and  _349
REMARK  124  A    between atoms: _348  and  _351
REMARK  125  A    between atoms: _351  and  _352
REMARK  126  A    between atoms: _355  and  _357
REMARK  127  A    between atoms: _357  and  _358
REMARK  128  A    between atoms: _357  and  _360
REMARK  129  A    between atoms: _363  and  _365
REMARK  130  A    between atoms: _365  and  _366
REMARK  131  A    between atoms: _365  and  _368
REMARK  132  A    between atoms: _368  and  _369
REMARK  133  A    between atoms: _379  and  _381
REMARK  134  A    between atoms: _381  and  _382
REMARK  135  A    between atoms: _381  and  _384
REMARK  136  A    between atoms: _384  and  _385
REMARK  137  A    between atoms: _390  and  _392
REMARK  138  A    between atoms: _392  and  _393
REMARK  139  A    between atoms: _392  and  _395
REMARK  140  A    between atoms: _395  and  _396
REMARK  141  A    between atoms: _396  and  _397
REMARK  142  A    between atoms: _397  and  _398
REMARK                            x       y       z     vdW  Elec       q    Type
REMARK                         _______ _______ _______ _____ _____    ______ ____
ROOT
ATOM      1  CA  ALA A   1      -4.440  -3.545   7.213  0.00  0.00    +0.133 C 
ATOM      2  CB  ALA A   1      -5.086  -3.275   8.577  0.00  0.00    +0.027 C 
ENDROOT
BRANCH   1   3
ATOM      3  N   ALA A   1      -3.071  -3.085   7.209  0.00  0.00    -0.239 NA
ATOM      4  H   ALA A   1      -2.877  -2.114   6.890  0.00  0.00    +0.142 HD
ENDBRANCH   1   3
BRANCH   1   5
ATOM      5  C   ALA A   1      -5.128  -2.747   6.119  0.00  0.00    +0.224 C 
ATOM      6  O   ALA A   1      -4.457  -2.185   5.248  0.00  0.00    -0.287 OA
ENDBRANCH   1   5
TORSDOF 2
REMARK  Name = ../refined-set-2016/3bl0/3bl0_pocket.pdb
REMARK  142 active torsions:
REMARK  status: ('A' for Active; 'I' for Inactive)
REMARK    1  A    between atoms: _1  and  _3
REMARK    2  A    between atoms: _3  and  _4
REMARK    3  A    between atoms: _3  and  _6
REMARK    4  A    between atoms: _6  and  _7
REMARK    5  A    between atoms: _17  and  _19
REMARK    6  A    between atoms: _19  and  _20
REMARK    7  A    between atoms: _19  and  _22
REMARK    8  A    between atoms: _22  and  _23
REMARK    9  A    between atoms: _28  and  _29
REMARK   10  A    between atoms: _31  and  _33
REMARK   11  A    between atoms: _33  and  _34
REMARK   12  A    between atoms: _33  and  _36
REMARK   13  A    between atoms: _36  and  _37
REMARK   14  A    between atoms: _40  and  _41
REMARK   15  A    between atoms: _46  and  _48
REMARK   16  A    between atoms: _48  and  _49
REMARK   17  A    between atoms: _48  and  _51
REMARK   18  A    between atoms: _51  and  _52
REMARK   19  A    between atoms: _57  and  _59
REMARK   20  A    between atoms: _59  and  _60
REMARK   21  A    between atoms: _63  and  _65
REMARK   22  A    between atoms: _65  and  _66
REMARK   23  A    between atoms: _65  and  _68
REMARK   24  A    between atoms: _68  and  _69
REMARK   25  A    between atoms: _74  and  _76
REMARK   26  A    between atoms: _76  and  _77
REMARK   27  A    between atoms: _76  and  _79
REMARK   28  A    between atoms: _79  and  _80
REMARK   29  A    between atoms: _83  and  _85
REMARK   30  A    between atoms: _85  and  _86
REMARK   31  A    between atoms: _85  and  _88
REMARK   32  A    between atoms: _88  and  _89
REMARK   33  A    between atoms: _89  and  _90
REMARK   34  A    between atoms: _95  and  _97
REMARK   35  A    between atoms: _97  and  _98
REMARK   36  A    between atoms: _97  and  _100
REMARK   37  A    between atoms: _100  and  _101
REMARK   38  A    between atoms: _107  and  _109
REMARK   39  A    between atoms: _120  and  _123
REMARK   40  A    between atoms: _123  and  _124
REMARK   41  A    between atoms: _132  and  _133
REMARK   42  A    between atoms: _141  and  _143
REMARK   43  A    between atoms: _143  and  _144
REMARK   44  A    between atoms: _143  and  _146
REMARK   45  A    between atoms: _146  and  _147
REMARK   46  A    between atoms: _147  and  _148
REMARK   47  A    between atoms: _151  and  _153
REMARK   48  A    between atoms: _153  and  _154
REMARK   49  A    between atoms: _153  and  _156
REMARK   50  A    between atoms: _156  and  _157
REMARK   51  A    between atoms: _162  and  _164
REMARK   52  A    between atoms: _164  and  _165
REMARK   53  A    between atoms: _164  and  _167
REMARK   54  A    between atoms: _167  and  _168
REMARK   55  A    between atoms: _168  and  _169
REMARK   56  A    between atoms: _172  and  _174
REMARK   57  A    between atoms: _174  and  _175
REMARK   58  A    between atoms: _174  and  _177
REMARK   59  A    between atoms: _177  and  _178
REMARK   60  A    between atoms: _181  and  _183
REMARK   61  A    between atoms: _183  and  _184
REMARK   62  A    between atoms: _183  and  _186
REMARK   63  A    between atoms: _186  and  _187
REMARK   64  A    between atoms: _188  and  ZN_407
REMARK   65  A    between atoms: _192  and  _194
REMARK   66  A    between atoms: _194  and  _195
REMARK   67  A    between atoms: _194  and  _197
REMARK   68  A    between atoms: _197  and  _198
REMARK   69  A    between atoms: _201  and  _203
REMARK   70  A    between atoms: _203  and  _204
REMARK   71  A    between atoms: _203  and  _206
REMARK   72  A    between atoms: _209  and  _211
REMARK   73  A    between atoms: _211  and  _212
REMARK   74  A    between atoms: _211  and  _214
REMARK   75  A    between atoms: _214  and  _215
REMARK   76  A    between atoms: _220  and  _222
REMARK   77  A    between atoms: _222  and  _223
REMARK   78  A    between atoms: _222  and  _225
REMARK   79  A    between atoms: _225  and  _226
REMARK   80  A    between atoms: _236  and  _238
REMARK   81  A    between atoms: _238  and  _239
REMARK   82  A    between atoms: _238  and  _241
REMARK   83  A    between atoms: _241  and  _242
REMARK   84  A    between atoms: _248  and  _250
REMARK   85  A    between atoms: _250  and  _251
REMARK   86  A    between atoms: _250  and  _253
REMARK   87  A    between atoms: _256  and  _258
REMARK   88  A    between atoms: _258  and  _259
REMARK   89  A    between atoms: _258  and  _261
REMARK   90  A    between atoms: _261  and  _262
REMARK   91  A    between atoms: _265  and  _267
REMARK   92  A    between atoms: _267  and  _268
REMARK   93  A    between atoms: _271  and  _273
REMARK   94  A    between atoms: _273  and  _274
REMARK   95  A    between atoms: _273  and  _276
REMARK   96  A    between atoms: _279  and  _281
REMARK   97  A    between atoms: _281  and  _282
REMARK   98  A    between atoms: _281  and  _284
REMARK   99  A    between atoms: _284  and  _285
REMARK  100  A    between atoms: _288  and  _290
REMARK  101  A    between atoms: _290  and  _291
REMARK  102  A    between atoms: _290  and  _293
REMARK  103  A    between atoms: _293  and  _294
REMARK  104  A    between atoms: _296  and  _298
REMARK  105  A    between atoms: _298  and  _299
REMARK  106  A    between atoms: _298  and  _301
REMARK  107  A    between atoms: _301  and  _302
REMARK  108  A    between atoms: _305  and  _307
REMARK  109  A    between atoms: _307  and  _308
REMARK  110  A    between atoms: _307  and  _310
REMARK  111  A    between atoms: _310  and  _311
REMARK  112  A    between atoms: _314  and  _316
REMARK  113  A    between atoms: _316  and  _317
REMARK  114  A    between atoms: _316  and  _319
REMARK  115  A    between atoms: _319  and  _320
REMARK  116  A    between atoms: _324  and  _325
REMARK  117  A    between atoms: _331  and  _332
REMARK  118  A    between atoms: _337  and  _339
REMARK  119  A    between atoms: _339  and  _340
REMARK  120  A    between atoms: _339  and  _342
REMARK  121  A    between atoms: _342  and  _343
REMARK  122  A    between atoms: _346  and  _348
REMARK  123  A    between atoms: _348  and  _349
REMARK  124  A    between atoms: _348  and  _351
REMARK  125  A    between atoms: _351  and  _352
REMARK  126  A    between atoms: _355  and  _357
REMARK  127  A    between atoms: _357  and  _358
REMARK  128  A    between atoms: _357  and  _360
REMARK  129  A    between atoms: _363  and  _365
REMARK  130  A    between atoms: _365  and  _366
REMARK  131  A    between atoms: _365  and  _368
REMARK  132  A    between atoms: _368  and  _369
REMARK  133  A    between atoms: _379  and  _381
REMARK  134  A    between atoms: _381  and  _382
REMARK  135  A    between atoms: _381  and  _384
REMARK  136  A    between atoms: _384  and  _385
REMARK  137  A    between atoms: _390  and  _392
REMARK  138  A    between atoms: _392  and  _393
REMARK  139  A    between atoms: _392  and  _395
REMARK  140  A    between atoms: _395  and  _396
REMARK  141  A    between atoms: _396  and  _397
REMARK  142  A    between atoms: _397  and  _398
REMARK                            x       y       z     vdW  Elec       q    Type
REMARK                         _______ _______ _______ _____ _____    ______ ____
ROOT
ATOM      1  CB  ASN A   1      -7.928   2.716   6.842  0.00  0.00    +0.110 C 
ENDROOT
BRANCH   1   2
ATOM      2  CG  ASN A   1      -6.687   2.373   7.648  0.00  0.00    +0.221 C 
ATOM      3  ND2 ASN A   1      -6.826   1.458   8.602  0.00  0.00    -0.329 N 
ATOM      4 HD21 ASN A   1      -6.008   1.184   9.183  0.00  0.00    +0.145 HD
ATOM      5 HD22 ASN A   1      -7.753   1.016   8.768  0.00  0.00    +0.145 HD
ATOM      6  OD1 ASN A   1      -5.609   2.927   7.411  0.00  0.00    -0.275 OA
ENDBRANCH   1   2
BRANCH   1   7
ATOM      7  CA  ASN A   1      -8.820   1.493   6.570  0.00  0.00    +0.142 C 
BRANCH   7   8
ATOM      8  N   ASN A   1      -8.066   0.469   5.860  0.00  0.00    -0.239 NA
ATOM      9  H   ASN A   1      -7.528   0.753   5.017  0.00  0.00    +0.142 HD
ENDBRANCH   7   8
BRANCH   7  10
ATOM     10  C   ASN A   1     -10.047   1.945   5.778  0.00  0.00    +0.225 C 
ATOM     11  O   ASN A   1      -9.939   2.303   4.603  0.00  0.00    -0.287 OA
ENDBRANCH   7  10
ENDBRANCH   1   7
TORSDOF 4
REMARK  Name = ../refined-set-2016/3bl0/3bl0_pocket.pdb
REMARK  142 active torsions:
REMARK  status: ('A' for Active; 'I' for Inactive)
REMARK    1  A    between atoms: _1  and  _3
REMARK    2  A    between atoms: _3  and  _4
REMARK    3  A    between atoms: _3  and  _6
REMARK    4  A    between atoms: _6  and  _7
REMARK    5  A    between atoms: _17  and  _19
REMARK    6  A    between atoms: _19  and  _20
REMARK    7  A    between atoms: _19  and  _22
REMARK    8  A    between atoms: _22  and  _23
REMARK    9  A    between atoms: _28  and  _29
REMARK   10  A    between atoms: _31  and  _33
REMARK   11  A    between atoms: _33  and  _34
REMARK   12  A    between atoms: _33  and  _36
REMARK   13  A    between atoms: _36  and  _37
REMARK   14  A    between atoms: _40  and  _41
REMARK   15  A    between atoms: _46  and  _48
REMARK   16  A    between atoms: _48  and  _49
REMARK   17  A    between atoms: _48  and  _51
REMARK   18  A    between atoms: _51  and  _52
REMARK   19  A    between atoms: _57  and  _59
REMARK   20  A    between atoms: _59  and  _60
REMARK   21  A    between atoms: _63  and  _65
REMARK   22  A    between atoms: _65  and  _66
REMARK   23  A    between atoms: _65  and  _68
REMARK   24  A    between atoms: _68  and  _69
REMARK   25  A    between atoms: _74  and  _76
REMARK   26  A    between atoms: _76  and  _77
REMARK   27  A    between atoms: _76  and  _79
REMARK   28  A    between atoms: _79  and  _80
REMARK   29  A    between atoms: _83  and  _85
REMARK   30  A    between atoms: _85  and  _86
REMARK   31  A    between atoms: _85  and  _88
REMARK   32  A    between atoms: _88  and  _89
REMARK   33  A    between atoms: _89  and  _90
REMARK   34  A    between atoms: _95  and  _97
REMARK   35  A    between atoms: _97  and  _98
REMARK   36  A    between atoms: _97  and  _100
REMARK   37  A    between atoms: _100  and  _101
REMARK   38  A    between atoms: _107  and  _109
REMARK   39  A    between atoms: _120  and  _123
REMARK   40  A    between atoms: _123  and  _124
REMARK   41  A    between atoms: _132  and  _133
REMARK   42  A    between atoms: _141  and  _143
REMARK   43  A    between atoms: _143  and  _144
REMARK   44  A    between atoms: _143  and  _146
REMARK   45  A    between atoms: _146  and  _147
REMARK   46  A    between atoms: _147  and  _148
REMARK   47  A    between atoms: _151  and  _153
REMARK   48  A    between atoms: _153  and  _154
REMARK   49  A    between atoms: _153  and  _156
REMARK   50  A    between atoms: _156  and  _157
REMARK   51  A    between atoms: _162  and  _164
REMARK   52  A    between atoms: _164  and  _165
REMARK   53  A    between atoms: _164  and  _167
REMARK   54  A    between atoms: _167  and  _168
REMARK   55  A    between atoms: _168  and  _169
REMARK   56  A    between atoms: _172  and  _174
REMARK   57  A    between atoms: _174  and  _175
REMARK   58  A    between atoms: _174  and  _177
REMARK   59  A    between atoms: _177  and  _178
REMARK   60  A    between atoms: _181  and  _183
REMARK   61  A    between atoms: _183  and  _184
REMARK   62  A    between atoms: _183  and  _186
REMARK   63  A    between atoms: _186  and  _187
REMARK   64  A    between atoms: _188  and  ZN_407
REMARK   65  A    between atoms: _192  and  _194
REMARK   66  A    between atoms: _194  and  _195
REMARK   67  A    between atoms: _194  and  _197
REMARK   68  A    between atoms: _197  and  _198
REMARK   69  A    between atoms: _201  and  _203
REMARK   70  A    between atoms: _203  and  _204
REMARK   71  A    between atoms: _203  and  _206
REMARK   72  A    between atoms: _209  and  _211
REMARK   73  A    between atoms: _211  and  _212
REMARK   74  A    between atoms: _211  and  _214
REMARK   75  A    between atoms: _214  and  _215
REMARK   76  A    between atoms: _220  and  _222
REMARK   77  A    between atoms: _222  and  _223
REMARK   78  A    between atoms: _222  and  _225
REMARK   79  A    between atoms: _225  and  _226
REMARK   80  A    between atoms: _236  and  _238
REMARK   81  A    between atoms: _238  and  _239
REMARK   82  A    between atoms: _238  and  _241
REMARK   83  A    between atoms: _241  and  _242
REMARK   84  A    between atoms: _248  and  _250
REMARK   85  A    between atoms: _250  and  _251
REMARK   86  A    between atoms: _250  and  _253
REMARK   87  A    between atoms: _256  and  _258
REMARK   88  A    between atoms: _258  and  _259
REMARK   89  A    between atoms: _258  and  _261
REMARK   90  A    between atoms: _261  and  _262
REMARK   91  A    between atoms: _265  and  _267
REMARK   92  A    between atoms: _267  and  _268
REMARK   93  A    between atoms: _271  and  _273
REMARK   94  A    between atoms: _273  and  _274
REMARK   95  A    between atoms: _273  and  _276
REMARK   96  A    between atoms: _279  and  _281
REMARK   97  A    between atoms: _281  and  _282
REMARK   98  A    between atoms: _281  and  _284
REMARK   99  A    between atoms: _284  and  _285
REMARK  100  A    between atoms: _288  and  _290
REMARK  101  A    between atoms: _290  and  _291
REMARK  102  A    between atoms: _290  and  _293
REMARK  103  A    between atoms: _293  and  _294
REMARK  104  A    between atoms: _296  and  _298
REMARK  105  A    between atoms: _298  and  _299
REMARK  106  A    between atoms: _298  and  _301
REMARK  107  A    between atoms: _301  and  _302
REMARK  108  A    between atoms: _305  and  _307
REMARK  109  A    between atoms: _307  and  _308
REMARK  110  A    between atoms: _307  and  _310
REMARK  111  A    between atoms: _310  and  _311
REMARK  112  A    between atoms: _314  and  _316
REMARK  113  A    between atoms: _316  and  _317
REMARK  114  A    between atoms: _316  and  _319
REMARK  115  A    between atoms: _319  and  _320
REMARK  116  A    between atoms: _324  and  _325
REMARK  117  A    between atoms: _331  and  _332
REMARK  118  A    between atoms: _337  and  _339
REMARK  119  A    between atoms: _339  and  _340
REMARK  120  A    between atoms: _339  and  _342
REMARK  121  A    between atoms: _342  and  _343
REMARK  122  A    between atoms: _346  and  _348
REMARK  123  A    between atoms: _348  and  _349
REMARK  124  A    between atoms: _348  and  _351
REMARK  125  A    between atoms: _351  and  _352
REMARK  126  A    between atoms: _355  and  _357
REMARK  127  A    between atoms: _357  and  _358
REMARK  128  A    between atoms: _357  and  _360
REMARK  129  A    between atoms: _363  and  _365
REMARK  130  A    between atoms: _365  and  _366
REMARK  131  A    between atoms: _365  and  _368
REMARK  132  A    between atoms: _368  and  _369
REMARK  133  A    between atoms: _379  and  _381
REMARK  134  A    between atoms: _381  and  _382
REMARK  135  A    between atoms: _381  and  _384
REMARK  136  A    between atoms: _384  and  _385
REMARK  137  A    between atoms: _390  and  _392
REMARK  138  A    between atoms: _392  and  _393
REMARK  139  A    between atoms: _392  and  _395
REMARK  140  A    between atoms: _395  and  _396
REMARK  141  A    between atoms: _396  and  _397
REMARK  142  A    between atoms: _397  and  _398
REMARK                            x       y       z     vdW  Elec       q    Type
REMARK                         _______ _______ _______ _____ _____    ______ ____
ROOT
ATOM      1  N   UNK A   6      -7.995  -2.392  16.745  0.00  0.00    +0.000 N 
ATOM      2  C   UNK A   6      -7.700  -3.327  17.630  0.00  0.00    +0.000 A 
ATOM      3  N   UNK A   6      -8.816  -3.697  18.232  0.00  0.00    +0.000 NA
ATOM      4  C   UNK A   6      -9.865  -2.988  17.700  0.00  0.00    +0.000 A 
ATOM      5  C   UNK A   6      -9.353  -2.161  16.759  0.00  0.00    +0.000 A 
ENDROOT
BRANCH   1  19
ATOM      6  C   UNK A   4      -9.926  -1.455  10.318  0.00  0.00    +0.000 C 
ATOM      7  C   UNK A   4     -10.039  -2.731  11.150  0.00  0.00    +0.000 C 
ATOM      8  O   UNK A   4     -10.712  -2.735  12.184  0.00  0.00    +0.000 OA
ATOM      9  N   VAL A   5      -9.397  -3.798  10.675  0.00  0.00    +0.000 N 
ATOM     10  CA  VAL A   5      -9.407  -5.090  11.354  0.00  0.00    +0.000 C 
ATOM     11  C   VAL A   5      -7.993  -5.572  11.632  0.00  0.00    +0.000 C 
ATOM     12  N   UNK A   6      -7.893  -6.530  12.555  0.00  0.00    +0.000 N 
ATOM     13  H   UNK A   6      -8.709  -6.698  13.178  0.00  0.00    +0.000 HD
ATOM     14  C   UNK A   6      -6.702  -7.358  12.742  0.00  0.00    +0.000 C 
ATOM     15  C   UNK A   6      -6.098  -7.116  14.125  0.00  0.00    +0.000 C 
ATOM     16  C   UNK A   6      -5.816  -5.671  14.406  0.00  0.00    +0.000 A 
ATOM     17  C   UNK A   6      -6.630  -4.670  14.814  0.00  0.00    +0.000 A 
ATOM     18  N   UNK A   6      -5.867  -3.530  14.885  0.00  0.00    +0.000 N 
ATOM     19 ZN   UNK A   6      -6.597  -1.633  15.377  0.00  0.00    +0.000 Zn
ATOM     20  N   UNK A   4      -7.214  -0.688  13.779  0.00  0.00    +0.000 N 
ATOM     21  C   UNK A   4      -7.720   0.517  13.583  0.00  0.00    +0.000 A 
ATOM     22  N   UNK A   4      -8.212   0.569  12.358  0.00  0.00    +0.000 NA
ATOM     23  C   UNK A   4      -8.007  -0.642  11.736  0.00  0.00    +0.000 A 
ATOM     24  C   UNK A   4      -7.392  -1.436  12.643  0.00  0.00    +0.000 A 
ATOM     25  C   UNK A   6      -4.628  -3.821  14.533  0.00  0.00    +0.000 A 
ATOM     26  N   UNK A   6      -4.571  -5.108  14.235  0.00  0.00    +0.000 NA
ATOM     27  O   VAL A   5      -7.027  -5.084  11.030  0.00  0.00    +0.000 OA
ATOM     28  H   VAL A   5      -8.868  -3.706   9.785  0.00  0.00    +0.000 HD
ATOM     29  C   UNK A   4      -8.489  -0.926  10.353  0.00  0.00    +0.000 C 
BRANCH   6  31
ATOM     30  C   UNK A   3     -11.298   0.570  10.217  0.00  0.00    +0.000 C 
ATOM     31  N   UNK A   4     -10.838  -0.476  10.898  0.00  0.00    +0.000 N 
ATOM     32  H   UNK A   4     -11.141  -0.601  11.885  0.00  0.00    +0.000 HD
ATOM     33  O   UNK A   3     -11.006   0.783   9.042  0.00  0.00    +0.000 OA
BRANCH  30  34
ATOM     34  C   UNK A   3     -12.230   1.512  10.993  0.00  0.00    +0.000 C 
BRANCH  34  37
ATOM     35  C   LEU A   2     -12.222   3.941  11.195  0.00  0.00    +0.000 C 
ATOM     36  O   LEU A   2     -12.278   3.914  12.417  0.00  0.00    +0.000 OA
ATOM     37  N   UNK A   3     -12.342   2.858  10.429  0.00  0.00    +0.000 N 
ATOM     38  H   UNK A   3     -12.519   2.971   9.410  0.00  0.00    +0.000 HD
BRANCH  35  39
ATOM     39  CA  LEU A   2     -12.018   5.271  10.475  0.00  0.00    +0.000 C 
BRANCH  39  41
ATOM     40  C   GLU A   1     -12.387   7.662  10.859  0.00  0.00    +0.000 C 
ATOM     41  N   LEU A   2     -12.304   6.418  11.339  0.00  0.00    +0.000 N 
ATOM     42  H   LEU A   2     -12.447   6.260  12.357  0.00  0.00    +0.000 HD
ATOM     43  O   GLU A   1     -12.328   7.905   9.658  0.00  0.00    +0.000 OA
BRANCH  40  44
ATOM     44  CA  GLU A   1     -12.635   8.804  11.874  0.00  0.00    +0.000 C 
BRANCH  44  45
ATOM     45  N   GLU A   1     -13.534   8.407  12.958  0.00  0.00    +0.000 NA
ATOM     46  H   GLU A   1     -13.183   7.782  13.711  0.00  0.00    +0.000 HD
ENDBRANCH  44  45
BRANCH  44  47
ATOM     47  CB  GLU A   1     -11.331   9.526  12.401  0.00  0.00    +0.000 C 
ATOM     48  CG2 GLU A   1     -10.611   8.689  13.467  0.00  0.00    +0.000 C 
BRANCH  47  49
ATOM     49  CG1 GLU A   1     -10.416   9.944  11.229  0.00  0.00    +0.000 C 
ATOM     50  CD1 GLU A   1      -9.396  11.045  11.561  0.00  0.00    +0.000 C 
ENDBRANCH  47  49
ENDBRANCH  44  47
ENDBRANCH  40  44
ENDBRANCH  39  41
BRANCH  39  51
ATOM     51  CB  LEU A   2     -10.587   5.359   9.925  0.00  0.00    +0.000 C 
BRANCH  51  52
ATOM     52  CG  LEU A   2      -9.476   5.266  10.967  0.00  0.00    +0.000 C 
BRANCH  52  53
ATOM     53  CD  LEU A   2      -8.817   3.891  10.998  0.00  0.00    +0.000 C 
ATOM     54  OE1 LEU A   2      -9.440   2.896  11.372  0.00  0.00    +0.000 OA
ATOM     55  NE2 LEU A   2      -7.548   3.831  10.601  0.00  0.00    +0.000 N 
ATOM     56 HE21 LEU A   2      -7.046   2.920  10.599  0.00  0.00    +0.000 HD
ATOM     57 HE22 LEU A   2      -7.058   4.695  10.293  0.00  0.00    +0.000 HD
ENDBRANCH  52  53
ENDBRANCH  51  52
ENDBRANCH  39  51
ENDBRANCH  35  39
ENDBRANCH  34  37
BRANCH  34  58
ATOM     58  C   UNK A   3     -13.605   0.877  11.284  0.00  0.00    +0.000 C 
BRANCH  58  59
ATOM     59  C   UNK A   3     -14.382   0.467  10.062  0.00  0.00    +0.000 A 
ATOM     60  C   UNK A   3     -15.489   1.205   9.652  0.00  0.00    +0.000 A 
ATOM     61  C   UNK A   3     -16.224   0.816   8.545  0.00  0.00    +0.000 A 
ATOM     62  C   UNK A   3     -15.865  -0.314   7.829  0.00  0.00    +0.000 A 
ATOM     63  C   UNK A   3     -14.776  -1.070   8.231  0.00  0.00    +0.000 A 
ATOM     64  C   UNK A   3     -14.044  -0.679   9.350  0.00  0.00    +0.000 A 
ENDBRANCH  58  59
ENDBRANCH  34  58
ENDBRANCH  30  34
ENDBRANCH   6  31
BRANCH  14  65
ATOM     65  C   UNK A   6      -7.155  -8.814  12.611  0.00  0.00    +0.000 C 
ATOM     66  O   UNK A   6      -8.196  -9.176  13.163  0.00  0.00    +0.000 OA
ENDBRANCH  14  65
BRANCH  10  67
ATOM     67  CB  VAL A   5     -10.119  -6.161  10.509  0.00  0.00    +0.000 C 
BRANCH  67  68
ATOM     68  CG  VAL A   5     -11.549  -5.848  10.184  0.00  0.00    +0.000 A 
ATOM     69  CD2 VAL A   5     -12.587  -6.479  10.859  0.00  0.00    +0.000 A 
ATOM     70  CE2 VAL A   5     -13.916  -6.201  10.532  0.00  0.00    +0.000 A 
ATOM     71  CZ  VAL A   5     -14.217  -5.276   9.524  0.00  0.00    +0.000 A 
ATOM     72  CE1 VAL A   5     -13.187  -4.643   8.852  0.00  0.00    +0.000 A 
ATOM     73  CD1 VAL A   5     -11.866  -4.938   9.173  0.00  0.00    +0.000 A 
ENDBRANCH  67  68
ENDBRANCH  10  67
ENDBRANCH   1  19
BRANCH   5  74
ATOM     74  C   UNK A   6     -10.015  -1.161  15.860  0.00  0.00    +0.000 C 
BRANCH  74  75
ATOM     75  C   UNK A   6     -11.521  -1.410  15.655  0.00  0.00    +0.000 C 
BRANCH  75  76
ATOM     76  N   UNK A   6     -11.739  -2.643  14.910  0.00  0.00    +0.000 N 
ATOM     77  C   LEU A   2     -12.359  -3.712  15.406  0.00  0.00    +0.000 C 
ATOM     78  O   LEU A   2     -12.770  -3.799  16.567  0.00  0.00    +0.000 OA
ATOM     79  H   UNK A   6     -11.389  -2.691  13.932  0.00  0.00    +0.000 HD
BRANCH  77  80
ATOM     80  CA  LEU A   2     -12.578  -4.876  14.424  0.00  0.00    +0.000 C 
BRANCH  80  81
ATOM     81  N   LEU A   2     -12.230  -6.151  15.038  0.00  0.00    +0.000 N 
ATOM     82  H   LEU A   2     -12.958  -6.620  15.614  0.00  0.00    +0.000 HD
ATOM     83  C   GLU A   1     -11.053  -6.764  14.920  0.00  0.00    +0.000 C 
ATOM     84  O   GLU A   1     -10.123  -6.374  14.203  0.00  0.00    +0.000 OA
BRANCH  83  85
ATOM     85  CA  GLU A   1     -10.911  -8.038  15.746  0.00  0.00    +0.000 C 
BRANCH  85  86
ATOM     86  N   GLU A   1     -10.419  -9.129  14.901  0.00  0.00    +0.000 NA
ATOM     87  H   GLU A   1      -9.788  -8.894  14.108  0.00  0.00    +0.000 HD
ENDBRANCH  85  86
BRANCH  85  88
ATOM     88  CB  GLU A   1      -9.971  -7.803  16.937  0.00  0.00    +0.000 C 
BRANCH  88  89
ATOM     89  CG  GLU A   1     -10.410  -6.721  17.920  0.00  0.00    +0.000 C 
BRANCH  89  90
ATOM     90  CD  GLU A   1      -9.574  -6.692  19.198  0.00  0.00    +0.000 C 
ATOM     91  OE2 GLU A   1      -9.539  -5.634  19.861  0.00  0.00    +0.000 OA
ATOM     92  OE1 GLU A   1      -8.965  -7.719  19.546  0.00  0.00    +0.000 OA
ENDBRANCH  89  90
ENDBRANCH  88  89
ENDBRANCH  85  88
ENDBRANCH  83  85
ENDBRANCH  80  81
BRANCH  80  93
ATOM     93  CB  LEU A   2     -14.066  -4.906  14.037  0.00  0.00    +0.000 C 
BRANCH  93  94
ATOM     94  CG  LEU A   2     -14.767  -3.619  13.585  0.00  0.00    +0.000 C 
ATOM     95  CD2 LEU A   2     -16.242  -3.899  13.349  0.00  0.00    +0.000 C 
ATOM     96  CD1 LEU A   2     -14.111  -3.001  12.341  0.00  0.00    +0.000 C 
ENDBRANCH  93  94
ENDBRANCH  80  93
ENDBRANCH  77  80
ENDBRANCH  75  76
BRANCH  75  97
ATOM     97  C   UNK A   6     -12.144  -0.205  14.955  0.00  0.00    +0.000 C 
ATOM     98  N   UNK A   4     -13.073   0.450  15.638  0.00  0.00    +0.000 N 
ATOM     99  H   UNK A   4     -13.390   0.052  16.545  0.00  0.00    +0.000 HD
ATOM    100  O   UNK A   6     -11.793   0.107  13.821  0.00  0.00    +0.000 OA
BRANCH  98 101
ATOM    101  C   UNK A   4     -13.676   1.704  15.183  0.00  0.00    +0.000 C 
BRANCH 101 102
ATOM    102  C   UNK A   4     -13.094   2.851  16.004  0.00  0.00    +0.000 C 
ATOM    103  O   UNK A   4     -13.287   2.923  17.224  0.00  0.00    +0.000 OA
ATOM    104  N   VAL A   5     -12.382   3.742  15.320  0.00  0.00    +0.000 N 
ATOM    105  H   VAL A   5     -12.432   3.728  14.281  0.00  0.00    +0.000 HD
BRANCH 104 106
ATOM    106  CA  VAL A   5     -11.534   4.737  15.965  0.00  0.00    +0.000 C 
BRANCH 106 107
ATOM    107  C   VAL A   5     -12.208   6.108  15.991  0.00  0.00    +0.000 C 
ATOM    108  N   UNK A   6     -12.236   6.732  17.175  0.00  0.00    +0.000 N 
ATOM    109  H   UNK A   6     -11.745   6.290  17.978  0.00  0.00    +0.000 HD
ATOM    110  O   VAL A   5     -12.672   6.585  14.952  0.00  0.00    +0.000 OA
BRANCH 108 111
ATOM    111  C   UNK A   6     -12.930   8.017  17.398  0.00  0.00    +0.000 C 
BRANCH 111 112
ATOM    112  C   UNK A   6     -12.043   9.029  18.122  0.00  0.00    +0.000 C 
ATOM    113  O   UNK A   6     -11.275   8.645  18.993  0.00  0.00    +0.000 OA
ATOM    114  N   TRP A   7     -12.167  10.320  17.779  0.00  0.00    +0.000 N 
ATOM    115  H   TRP A   7     -12.788  10.582  16.987  0.00  0.00    +0.000 HD
BRANCH 114 116
ATOM    116  CA  TRP A   7     -11.434  11.378  18.511  0.00  0.00    +0.000 C 
BRANCH 116 117
ATOM    117  C   TRP A   7     -12.329  12.385  19.242  0.00  0.00    +0.000 C 
ATOM    118  O   TRP A   7     -13.409  12.736  18.766  0.00  0.00    +0.000 OA
ENDBRANCH 116 117
BRANCH 116 119
ATOM    119  CB  TRP A   7     -10.440  12.114  17.604  0.00  0.00    +0.000 C 
BRANCH 119 120
ATOM    120  CG  TRP A   7     -11.053  12.729  16.397  0.00  0.00    +0.000 A 
ATOM    121  CD2 TRP A   7     -11.470  14.091  16.245  0.00  0.00    +0.000 A 
ATOM    122  CE3 TRP A   7     -11.457  15.215  17.086  0.00  0.00    +0.000 A 
ATOM    123  CZ3 TRP A   7     -11.965  16.428  16.595  0.00  0.00    +0.000 A 
ATOM    124  CH2 TRP A   7     -12.473  16.523  15.292  0.00  0.00    +0.000 A 
ATOM    125  CZ2 TRP A   7     -12.506  15.429  14.453  0.00  0.00    +0.000 A 
ATOM    126  CE2 TRP A   7     -11.997  14.221  14.941  0.00  0.00    +0.000 A 
ATOM    127  NE1 TRP A   7     -11.895  12.994  14.333  0.00  0.00    +0.000 N 
ATOM    128  HE1 TRP A   7     -12.201  12.773  13.364  0.00  0.00    +0.000 HD
ATOM    129  CD1 TRP A   7     -11.324  12.107  15.210  0.00  0.00    +0.000 A 
ENDBRANCH 119 120
ENDBRANCH 116 119
ENDBRANCH 114 116
ENDBRANCH 111 112
BRANCH 111 130
ATOM    130  C   UNK A   6     -14.209   7.833  18.237  0.00  0.00    +0.000 C 
BRANCH 130 131
ATOM    131  C   UNK A   6     -15.084   6.693  17.802  0.00  0.00    +0.000 A 
ATOM    132  N   UNK A   6     -14.771   5.373  18.057  0.00  0.00    +0.000 NA
ATOM    133  C   UNK A   6     -15.726   4.596  17.576  0.00  0.00    +0.000 A 
ATOM    134  N   UNK A   6     -16.653   5.363  17.030  0.00  0.00    +0.000 NA
ATOM    135  C   UNK A   6     -16.276   6.679  17.161  0.00  0.00    +0.000 A 
ENDBRANCH 130 131
ENDBRANCH 111 130
ENDBRANCH 108 111
ENDBRANCH 106 107
BRANCH 106 136
ATOM    136  CB  VAL A   5     -10.166   4.834  15.251  0.00  0.00    +0.000 C 
ATOM    137  CG2 VAL A   5      -9.207   5.751  16.028  0.00  0.00    +0.000 C 
ATOM    138  CG1 VAL A   5      -9.578   3.442  15.045  0.00  0.00    +0.000 C 
ENDBRANCH 106 136
ENDBRANCH 104 106
ENDBRANCH 101 102
BRANCH 101 139
ATOM    139  C   UNK A   4     -15.192   1.652  15.326  0.00  0.00    +0.000 C 
BRANCH 139 140
ATOM    140  C   UNK A   4     -15.887   0.556  14.517  0.00  0.00    +0.000 C 
ATOM    141  C   UNK A   4     -16.674  -0.321  15.461  0.00  0.00    +0.000 C 
ATOM    142  C   UNK A   4     -16.785   1.168  13.422  0.00  0.00    +0.000 C 
ENDBRANCH 139 140
ENDBRANCH 101 139
ENDBRANCH  98 101
ENDBRANCH  75  97
ENDBRANCH  74  75
ENDBRANCH   5  74
TORSDOF 46
REMARK  Name = ../refined-set-2016/3bl0/3bl0_pocket.pdb
REMARK  142 active torsions:
REMARK  status: ('A' for Active; 'I' for Inactive)
REMARK    1  A    between atoms: _1  and  _3
REMARK    2  A    between atoms: _3  and  _4
REMARK    3  A    between atoms: _3  and  _6
REMARK    4  A    between atoms: _6  and  _7
REMARK    5  A    between atoms: _17  and  _19
REMARK    6  A    between atoms: _19  and  _20
REMARK    7  A    between atoms: _19  and  _22
REMARK    8  A    between atoms: _22  and  _23
REMARK    9  A    between atoms: _28  and  _29
REMARK   10  A    between atoms: _31  and  _33
REMARK   11  A    between atoms: _33  and  _34
REMARK   12  A    between atoms: _33  and  _36
REMARK   13  A    between atoms: _36  and  _37
REMARK   14  A    between atoms: _40  and  _41
REMARK   15  A    between atoms: _46  and  _48
REMARK   16  A    between atoms: _48  and  _49
REMARK   17  A    between atoms: _48  and  _51
REMARK   18  A    between atoms: _51  and  _52
REMARK   19  A    between atoms: _57  and  _59
REMARK   20  A    between atoms: _59  and  _60
REMARK   21  A    between atoms: _63  and  _65
REMARK   22  A    between atoms: _65  and  _66
REMARK   23  A    between atoms: _65  and  _68
REMARK   24  A    between atoms: _68  and  _69
REMARK   25  A    between atoms: _74  and  _76
REMARK   26  A    between atoms: _76  and  _77
REMARK   27  A    between atoms: _76  and  _79
REMARK   28  A    between atoms: _79  and  _80
REMARK   29  A    between atoms: _83  and  _85
REMARK   30  A    between atoms: _85  and  _86
REMARK   31  A    between atoms: _85  and  _88
REMARK   32  A    between atoms: _88  and  _89
REMARK   33  A    between atoms: _89  and  _90
REMARK   34  A    between atoms: _95  and  _97
REMARK   35  A    between atoms: _97  and  _98
REMARK   36  A    between atoms: _97  and  _100
REMARK   37  A    between atoms: _100  and  _101
REMARK   38  A    between atoms: _107  and  _109
REMARK   39  A    between atoms: _120  and  _123
REMARK   40  A    between atoms: _123  and  _124
REMARK   41  A    between atoms: _132  and  _133
REMARK   42  A    between atoms: _141  and  _143
REMARK   43  A    between atoms: _143  and  _144
REMARK   44  A    between atoms: _143  and  _146
REMARK   45  A    between atoms: _146  and  _147
REMARK   46  A    between atoms: _147  and  _148
REMARK   47  A    between atoms: _151  and  _153
REMARK   48  A    between atoms: _153  and  _154
REMARK   49  A    between atoms: _153  and  _156
REMARK   50  A    between atoms: _156  and  _157
REMARK   51  A    between atoms: _162  and  _164
REMARK   52  A    between atoms: _164  and  _165
REMARK   53  A    between atoms: _164  and  _167
REMARK   54  A    between atoms: _167  and  _168
REMARK   55  A    between atoms: _168  and  _169
REMARK   56  A    between atoms: _172  and  _174
REMARK   57  A    between atoms: _174  and  _175
REMARK   58  A    between atoms: _174  and  _177
REMARK   59  A    between atoms: _177  and  _178
REMARK   60  A    between atoms: _181  and  _183
REMARK   61  A    between atoms: _183  and  _184
REMARK   62  A    between atoms: _183  and  _186
REMARK   63  A    between atoms: _186  and  _187
REMARK   64  A    between atoms: _188  and  ZN_407
REMARK   65  A    between atoms: _192  and  _194
REMARK   66  A    between atoms: _194  and  _195
REMARK   67  A    between atoms: _194  and  _197
REMARK   68  A    between atoms: _197  and  _198
REMARK   69  A    between atoms: _201  and  _203
REMARK   70  A    between atoms: _203  and  _204
REMARK   71  A    between atoms: _203  and  _206
REMARK   72  A    between atoms: _209  and  _211
REMARK   73  A    between atoms: _211  and  _212
REMARK   74  A    between atoms: _211  and  _214
REMARK   75  A    between atoms: _214  and  _215
REMARK   76  A    between atoms: _220  and  _222
REMARK   77  A    between atoms: _222  and  _223
REMARK   78  A    between atoms: _222  and  _225
REMARK   79  A    between atoms: _225  and  _226
REMARK   80  A    between atoms: _236  and  _238
REMARK   81  A    between atoms: _238  and  _239
REMARK   82  A    between atoms: _238  and  _241
REMARK   83  A    between atoms: _241  and  _242
REMARK   84  A    between atoms: _248  and  _250
REMARK   85  A    between atoms: _250  and  _251
REMARK   86  A    between atoms: _250  and  _253
REMARK   87  A    between atoms: _256  and  _258
REMARK   88  A    between atoms: _258  and  _259
REMARK   89  A    between atoms: _258  and  _261
REMARK   90  A    between atoms: _261  and  _262
REMARK   91  A    between atoms: _265  and  _267
REMARK   92  A    between atoms: _267  and  _268
REMARK   93  A    between atoms: _271  and  _273
REMARK   94  A    between atoms: _273  and  _274
REMARK   95  A    between atoms: _273  and  _276
REMARK   96  A    between atoms: _279  and  _281
REMARK   97  A    between atoms: _281  and  _282
REMARK   98  A    between atoms: _281  and  _284
REMARK   99  A    between atoms: _284  and  _285
REMARK  100  A    between atoms: _288  and  _290
REMARK  101  A    between atoms: _290  and  _291
REMARK  102  A    between atoms: _290  and  _293
REMARK  103  A    between atoms: _293  and  _294
REMARK  104  A    between atoms: _296  and  _298
REMARK  105  A    between atoms: _298  and  _299
REMARK  106  A    between atoms: _298  and  _301
REMARK  107  A    between atoms: _301  and  _302
REMARK  108  A    between atoms: _305  and  _307
REMARK  109  A    between atoms: _307  and  _308
REMARK  110  A    between atoms: _307  and  _310
REMARK  111  A    between atoms: _310  and  _311
REMARK  112  A    between atoms: _314  and  _316
REMARK  113  A    between atoms: _316  and  _317
REMARK  114  A    between atoms: _316  and  _319
REMARK  115  A    between atoms: _319  and  _320
REMARK  116  A    between atoms: _324  and  _325
REMARK  117  A    between atoms: _331  and  _332
REMARK  118  A    between atoms: _337  and  _339
REMARK  119  A    between atoms: _339  and  _340
REMARK  120  A    between atoms: _339  and  _342
REMARK  121  A    between atoms: _342  and  _343
REMARK  122  A    between atoms: _346  and  _348
REMARK  123  A    between atoms: _348  and  _349
REMARK  124  A    between atoms: _348  and  _351
REMARK  125  A    between atoms: _351  and  _352
REMARK  126  A    between atoms: _355  and  _357
REMARK  127  A    between atoms: _357  and  _358
REMARK  128  A    between atoms: _357  and  _360
REMARK  129  A    between atoms: _363  and  _365
REMARK  130  A    between atoms: _365  and  _366
REMARK  131  A    between atoms: _365  and  _368
REMARK  132  A    between atoms: _368  and  _369
REMARK  133  A    between atoms: _379  and  _381
REMARK  134  A    between atoms: _381  and  _382
REMARK  135  A    between atoms: _381  and  _384
REMARK  136  A    between atoms: _384  and  _385
REMARK  137  A    between atoms: _390  and  _392
REMARK  138  A    between atoms: _392  and  _393
REMARK  139  A    between atoms: _392  and  _395
REMARK  140  A    between atoms: _395  and  _396
REMARK  141  A    between atoms: _396  and  _397
REMARK  142  A    between atoms: _397  and  _398
REMARK                            x       y       z     vdW  Elec       q    Type
REMARK                         _______ _______ _______ _____ _____    ______ ____
ROOT
ATOM      1  C   GLU A   1      -5.877  -8.563  21.102  0.00  0.00    +0.238 C 
ATOM      2  O   GLU A   1      -5.061  -9.081  21.858  0.00  0.00    -0.274 OA
ATOM      3  N   HIS A   2      -7.063  -8.127  21.522  0.00  0.00    -0.298 N 
ATOM      4  H   HIS A   2      -7.667  -7.561  20.892  0.00  0.00    +0.150 HD
ENDROOT
BRANCH   1   5
ATOM      5  CA  GLU A   1      -5.567  -8.392  19.616  0.00  0.00    +0.145 C 
BRANCH   5   6
ATOM      6  N   GLU A   1      -6.585  -9.075  18.856  0.00  0.00    -0.238 NA
ATOM      7  H   GLU A   1      -7.460  -8.564  18.621  0.00  0.00    +0.142 HD
ENDBRANCH   5   6
BRANCH   5   8
ATOM      8  CB  GLU A   1      -5.532  -6.920  19.211  0.00  0.00    +0.038 C 
BRANCH   8   9
ATOM      9  CG  GLU A   1      -5.061  -6.720  17.770  0.00  0.00    +0.116 C 
BRANCH   9  10
ATOM     10  CD  GLU A   1      -4.299  -5.424  17.584  0.00  0.00    +0.365 C 
ATOM     11  OE2 GLU A   1      -4.875  -4.350  17.846  0.00  0.00    -0.246 OA
ATOM     12  OE1 GLU A   1      -3.131  -5.482  17.146  0.00  0.00    -0.246 OA
ENDBRANCH   9  10
ENDBRANCH   8   9
ENDBRANCH   5   8
ENDBRANCH   1   5
BRANCH   3  13
ATOM     13  CA  HIS A   2      -7.507  -8.449  22.871  0.00  0.00    +0.143 C 
BRANCH  13  14
ATOM     14  C   HIS A   2      -7.843  -9.933  22.966  0.00  0.00    +0.227 C 
ATOM     15  O   HIS A   2      -8.175 -10.580  21.952  0.00  0.00    -0.286 OA
ENDBRANCH  13  14
BRANCH  13  16
ATOM     16  CB  HIS A   2      -8.690  -7.570  23.268  0.00  0.00    +0.075 C 
BRANCH  16  17
ATOM     17  CG  HIS A   2      -8.339  -6.121  23.378  0.00  0.00    +0.082 A 
ATOM     18  CD2 HIS A   2      -7.877  -5.397  24.424  0.00  0.00    +0.115 A 
ATOM     19  NE2 HIS A   2      -7.704  -4.106  23.979  0.00  0.00    -0.221 NA
ATOM     20  CE1 HIS A   2      -8.021  -4.047  22.696  0.00  0.00    +0.199 A 
ATOM     21  ND1 HIS A   2      -8.410  -5.250  22.306  0.00  0.00    -0.227 NA
ENDBRANCH  16  17
ENDBRANCH  13  16
ENDBRANCH   3  13
TORSDOF 9
REMARK  Name = ../refined-set-2016/3bl0/3bl0_pocket.pdb
REMARK  142 active torsions:
REMARK  status: ('A' for Active; 'I' for Inactive)
REMARK    1  A    between atoms: _1  and  _3
REMARK    2  A    between atoms: _3  and  _4
REMARK    3  A    between atoms: _3  and  _6
REMARK    4  A    between atoms: _6  and  _7
REMARK    5  A    between atoms: _17  and  _19
REMARK    6  A    between atoms: _19  and  _20
REMARK    7  A    between atoms: _19  and  _22
REMARK    8  A    between atoms: _22  and  _23
REMARK    9  A    between atoms: _28  and  _29
REMARK   10  A    between atoms: _31  and  _33
REMARK   11  A    between atoms: _33  and  _34
REMARK   12  A    between atoms: _33  and  _36
REMARK   13  A    between atoms: _36  and  _37
REMARK   14  A    between atoms: _40  and  _41
REMARK   15  A    between atoms: _46  and  _48
REMARK   16  A    between atoms: _48  and  _49
REMARK   17  A    between atoms: _48  and  _51
REMARK   18  A    between atoms: _51  and  _52
REMARK   19  A    between atoms: _57  and  _59
REMARK   20  A    between atoms: _59  and  _60
REMARK   21  A    between atoms: _63  and  _65
REMARK   22  A    between atoms: _65  and  _66
REMARK   23  A    between atoms: _65  and  _68
REMARK   24  A    between atoms: _68  and  _69
REMARK   25  A    between atoms: _74  and  _76
REMARK   26  A    between atoms: _76  and  _77
REMARK   27  A    between atoms: _76  and  _79
REMARK   28  A    between atoms: _79  and  _80
REMARK   29  A    between atoms: _83  and  _85
REMARK   30  A    between atoms: _85  and  _86
REMARK   31  A    between atoms: _85  and  _88
REMARK   32  A    between atoms: _88  and  _89
REMARK   33  A    between atoms: _89  and  _90
REMARK   34  A    between atoms: _95  and  _97
REMARK   35  A    between atoms: _97  and  _98
REMARK   36  A    between atoms: _97  and  _100
REMARK   37  A    between atoms: _100  and  _101
REMARK   38  A    between atoms: _107  and  _109
REMARK   39  A    between atoms: _120  and  _123
REMARK   40  A    between atoms: _123  and  _124
REMARK   41  A    between atoms: _132  and  _133
REMARK   42  A    between atoms: _141  and  _143
REMARK   43  A    between atoms: _143  and  _144
REMARK   44  A    between atoms: _143  and  _146
REMARK   45  A    between atoms: _146  and  _147
REMARK   46  A    between atoms: _147  and  _148
REMARK   47  A    between atoms: _151  and  _153
REMARK   48  A    between atoms: _153  and  _154
REMARK   49  A    between atoms: _153  and  _156
REMARK   50  A    between atoms: _156  and  _157
REMARK   51  A    between atoms: _162  and  _164
REMARK   52  A    between atoms: _164  and  _165
REMARK   53  A    between atoms: _164  and  _167
REMARK   54  A    between atoms: _167  and  _168
REMARK   55  A    between atoms: _168  and  _169
REMARK   56  A    between atoms: _172  and  _174
REMARK   57  A    between atoms: _174  and  _175
REMARK   58  A    between atoms: _174  and  _177
REMARK   59  A    between atoms: _177  and  _178
REMARK   60  A    between atoms: _181  and  _183
REMARK   61  A    between atoms: _183  and  _184
REMARK   62  A    between atoms: _183  and  _186
REMARK   63  A    between atoms: _186  and  _187
REMARK   64  A    between atoms: _188  and  ZN_407
REMARK   65  A    between atoms: _192  and  _194
REMARK   66  A    between atoms: _194  and  _195
REMARK   67  A    between atoms: _194  and  _197
REMARK   68  A    between atoms: _197  and  _198
REMARK   69  A    between atoms: _201  and  _203
REMARK   70  A    between atoms: _203  and  _204
REMARK   71  A    between atoms: _203  and  _206
REMARK   72  A    between atoms: _209  and  _211
REMARK   73  A    between atoms: _211  and  _212
REMARK   74  A    between atoms: _211  and  _214
REMARK   75  A    between atoms: _214  and  _215
REMARK   76  A    between atoms: _220  and  _222
REMARK   77  A    between atoms: _222  and  _223
REMARK   78  A    between atoms: _222  and  _225
REMARK   79  A    between atoms: _225  and  _226
REMARK   80  A    between atoms: _236  and  _238
REMARK   81  A    between atoms: _238  and  _239
REMARK   82  A    between atoms: _238  and  _241
REMARK   83  A    between atoms: _241  and  _242
REMARK   84  A    between atoms: _248  and  _250
REMARK   85  A    between atoms: _250  and  _251
REMARK   86  A    between atoms: _250  and  _253
REMARK   87  A    between atoms: _256  and  _258
REMARK   88  A    between atoms: _258  and  _259
REMARK   89  A    between atoms: _258  and  _261
REMARK   90  A    between atoms: _261  and  _262
REMARK   91  A    between atoms: _265  and  _267
REMARK   92  A    between atoms: _267  and  _268
REMARK   93  A    between atoms: _271  and  _273
REMARK   94  A    between atoms: _273  and  _274
REMARK   95  A    between atoms: _273  and  _276
REMARK   96  A    between atoms: _279  and  _281
REMARK   97  A    between atoms: _281  and  _282
REMARK   98  A    between atoms: _281  and  _284
REMARK   99  A    between atoms: _284  and  _285
REMARK  100  A    between atoms: _288  and  _290
REMARK  101  A    between atoms: _290  and  _291
REMARK  102  A    between atoms: _290  and  _293
REMARK  103  A    between atoms: _293  and  _294
REMARK  104  A    between atoms: _296  and  _298
REMARK  105  A    between atoms: _298  and  _299
REMARK  106  A    between atoms: _298  and  _301
REMARK  107  A    between atoms: _301  and  _302
REMARK  108  A    between atoms: _305  and  _307
REMARK  109  A    between atoms: _307  and  _308
REMARK  110  A    between atoms: _307  and  _310
REMARK  111  A    between atoms: _310  and  _311
REMARK  112  A    between atoms: _314  and  _316
REMARK  113  A    between atoms: _316  and  _317
REMARK  114  A    between atoms: _316  and  _319
REMARK  115  A    between atoms: _319  and  _320
REMARK  116  A    between atoms: _324  and  _325
REMARK  117  A    between atoms: _331  and  _332
REMARK  118  A    between atoms: _337  and  _339
REMARK  119  A    between atoms: _339  and  _340
REMARK  120  A    between atoms: _339  and  _342
REMARK  121  A    between atoms: _342  and  _343
REMARK  122  A    between atoms: _346  and  _348
REMARK  123  A    between atoms: _348  and  _349
REMARK  124  A    between atoms: _348  and  _351
REMARK  125  A    between atoms: _351  and  _352
REMARK  126  A    between atoms: _355  and  _357
REMARK  127  A    between atoms: _357  and  _358
REMARK  128  A    between atoms: _357  and  _360
REMARK  129  A    between atoms: _363  and  _365
REMARK  130  A    between atoms: _365  and  _366
REMARK  131  A    between atoms: _365  and  _368
REMARK  132  A    between atoms: _368  and  _369
REMARK  133  A    between atoms: _379  and  _381
REMARK  134  A    between atoms: _381  and  _382
REMARK  135  A    between atoms: _381  and  _384
REMARK  136  A    between atoms: _384  and  _385
REMARK  137  A    between atoms: _390  and  _392
REMARK  138  A    between atoms: _392  and  _393
REMARK  139  A    between atoms: _392  and  _395
REMARK  140  A    between atoms: _395  and  _396
REMARK  141  A    between atoms: _396  and  _397
REMARK  142  A    between atoms: _397  and  _398
REMARK                            x       y       z     vdW  Elec       q    Type
REMARK                         _______ _______ _______ _____ _____    ______ ____
ROOT
ATOM      1  CB  PHE A   1      -7.380  13.112  14.176  0.00  0.00    +0.051 C 
ENDROOT
BRANCH   1   2
ATOM      2  CG  PHE A   1      -6.778  11.781  14.539  0.00  0.00    -0.020 A 
ATOM      3  CD2 PHE A   1      -7.577  10.749  15.024  0.00  0.00    -0.004 A 
ATOM      4  CE2 PHE A   1      -7.025   9.517  15.355  0.00  0.00    -0.000 A 
ATOM      5  CZ  PHE A   1      -5.657   9.312  15.213  0.00  0.00    -0.000 A 
ATOM      6  CE1 PHE A   1      -4.854  10.333  14.727  0.00  0.00    -0.000 A 
ATOM      7  CD1 PHE A   1      -5.416  11.558  14.393  0.00  0.00    -0.004 A 
ENDBRANCH   1   2
BRANCH   1   8
ATOM      8  CA  PHE A   1      -7.394  14.120  15.330  0.00  0.00    +0.137 C 
BRANCH   8   9
ATOM      9  N   PHE A   1      -8.049  15.372  14.938  0.00  0.00    -0.239 NA
ATOM     10  H   PHE A   1      -8.446  15.458  13.981  0.00  0.00    +0.142 HD
ENDBRANCH   8   9
BRANCH   8  11
ATOM     11  C   PHE A   1      -5.977  14.332  15.840  0.00  0.00    +0.224 C 
ATOM     12  O   PHE A   1      -5.602  13.769  16.869  0.00  0.00    -0.287 OA
ENDBRANCH   8  11
ENDBRANCH   1   8
TORSDOF 4
REMARK  Name = ../refined-set-2016/3bl0/3bl0_pocket.pdb
REMARK  142 active torsions:
REMARK  status: ('A' for Active; 'I' for Inactive)
REMARK    1  A    between atoms: _1  and  _3
REMARK    2  A    between atoms: _3  and  _4
REMARK    3  A    between atoms: _3  and  _6
REMARK    4  A    between atoms: _6  and  _7
REMARK    5  A    between atoms: _17  and  _19
REMARK    6  A    between atoms: _19  and  _20
REMARK    7  A    between atoms: _19  and  _22
REMARK    8  A    between atoms: _22  and  _23
REMARK    9  A    between atoms: _28  and  _29
REMARK   10  A    between atoms: _31  and  _33
REMARK   11  A    between atoms: _33  and  _34
REMARK   12  A    between atoms: _33  and  _36
REMARK   13  A    between atoms: _36  and  _37
REMARK   14  A    between atoms: _40  and  _41
REMARK   15  A    between atoms: _46  and  _48
REMARK   16  A    between atoms: _48  and  _49
REMARK   17  A    between atoms: _48  and  _51
REMARK   18  A    between atoms: _51  and  _52
REMARK   19  A    between atoms: _57  and  _59
REMARK   20  A    between atoms: _59  and  _60
REMARK   21  A    between atoms: _63  and  _65
REMARK   22  A    between atoms: _65  and  _66
REMARK   23  A    between atoms: _65  and  _68
REMARK   24  A    between atoms: _68  and  _69
REMARK   25  A    between atoms: _74  and  _76
REMARK   26  A    between atoms: _76  and  _77
REMARK   27  A    between atoms: _76  and  _79
REMARK   28  A    between atoms: _79  and  _80
REMARK   29  A    between atoms: _83  and  _85
REMARK   30  A    between atoms: _85  and  _86
REMARK   31  A    between atoms: _85  and  _88
REMARK   32  A    between atoms: _88  and  _89
REMARK   33  A    between atoms: _89  and  _90
REMARK   34  A    between atoms: _95  and  _97
REMARK   35  A    between atoms: _97  and  _98
REMARK   36  A    between atoms: _97  and  _100
REMARK   37  A    between atoms: _100  and  _101
REMARK   38  A    between atoms: _107  and  _109
REMARK   39  A    between atoms: _120  and  _123
REMARK   40  A    between atoms: _123  and  _124
REMARK   41  A    between atoms: _132  and  _133
REMARK   42  A    between atoms: _141  and  _143
REMARK   43  A    between atoms: _143  and  _144
REMARK   44  A    between atoms: _143  and  _146
REMARK   45  A    between atoms: _146  and  _147
REMARK   46  A    between atoms: _147  and  _148
REMARK   47  A    between atoms: _151  and  _153
REMARK   48  A    between atoms: _153  and  _154
REMARK   49  A    between atoms: _153  and  _156
REMARK   50  A    between atoms: _156  and  _157
REMARK   51  A    between atoms: _162  and  _164
REMARK   52  A    between atoms: _164  and  _165
REMARK   53  A    between atoms: _164  and  _167
REMARK   54  A    between atoms: _167  and  _168
REMARK   55  A    between atoms: _168  and  _169
REMARK   56  A    between atoms: _172  and  _174
REMARK   57  A    between atoms: _174  and  _175
REMARK   58  A    between atoms: _174  and  _177
REMARK   59  A    between atoms: _177  and  _178
REMARK   60  A    between atoms: _181  and  _183
REMARK   61  A    between atoms: _183  and  _184
REMARK   62  A    between atoms: _183  and  _186
REMARK   63  A    between atoms: _186  and  _187
REMARK   64  A    between atoms: _188  and  ZN_407
REMARK   65  A    between atoms: _192  and  _194
REMARK   66  A    between atoms: _194  and  _195
REMARK   67  A    between atoms: _194  and  _197
REMARK   68  A    between atoms: _197  and  _198
REMARK   69  A    between atoms: _201  and  _203
REMARK   70  A    between atoms: _203  and  _204
REMARK   71  A    between atoms: _203  and  _206
REMARK   72  A    between atoms: _209  and  _211
REMARK   73  A    between atoms: _211  and  _212
REMARK   74  A    between atoms: _211  and  _214
REMARK   75  A    between atoms: _214  and  _215
REMARK   76  A    between atoms: _220  and  _222
REMARK   77  A    between atoms: _222  and  _223
REMARK   78  A    between atoms: _222  and  _225
REMARK   79  A    between atoms: _225  and  _226
REMARK   80  A    between atoms: _236  and  _238
REMARK   81  A    between atoms: _238  and  _239
REMARK   82  A    between atoms: _238  and  _241
REMARK   83  A    between atoms: _241  and  _242
REMARK   84  A    between atoms: _248  and  _250
REMARK   85  A    between atoms: _250  and  _251
REMARK   86  A    between atoms: _250  and  _253
REMARK   87  A    between atoms: _256  and  _258
REMARK   88  A    between atoms: _258  and  _259
REMARK   89  A    between atoms: _258  and  _261
REMARK   90  A    between atoms: _261  and  _262
REMARK   91  A    between atoms: _265  and  _267
REMARK   92  A    between atoms: _267  and  _268
REMARK   93  A    between atoms: _271  and  _273
REMARK   94  A    between atoms: _273  and  _274
REMARK   95  A    between atoms: _273  and  _276
REMARK   96  A    between atoms: _279  and  _281
REMARK   97  A    between atoms: _281  and  _282
REMARK   98  A    between atoms: _281  and  _284
REMARK   99  A    between atoms: _284  and  _285
REMARK  100  A    between atoms: _288  and  _290
REMARK  101  A    between atoms: _290  and  _291
REMARK  102  A    between atoms: _290  and  _293
REMARK  103  A    between atoms: _293  and  _294
REMARK  104  A    between atoms: _296  and  _298
REMARK  105  A    between atoms: _298  and  _299
REMARK  106  A    between atoms: _298  and  _301
REMARK  107  A    between atoms: _301  and  _302
REMARK  108  A    between atoms: _305  and  _307
REMARK  109  A    between atoms: _307  and  _308
REMARK  110  A    between atoms: _307  and  _310
REMARK  111  A    between atoms: _310  and  _311
REMARK  112  A    between atoms: _314  and  _316
REMARK  113  A    between atoms: _316  and  _317
REMARK  114  A    between atoms: _316  and  _319
REMARK  115  A    between atoms: _319  and  _320
REMARK  116  A    between atoms: _324  and  _325
REMARK  117  A    between atoms: _331  and  _332
REMARK  118  A    between atoms: _337  and  _339
REMARK  119  A    between atoms: _339  and  _340
REMARK  120  A    between atoms: _339  and  _342
REMARK  121  A    between atoms: _342  and  _343
REMARK  122  A    between atoms: _346  and  _348
REMARK  123  A    between atoms: _348  and  _349
REMARK  124  A    between atoms: _348  and  _351
REMARK  125  A    between atoms: _351  and  _352
REMARK  126  A    between atoms: _355  and  _357
REMARK  127  A    between atoms: _357  and  _358
REMARK  128  A    between atoms: _357  and  _360
REMARK  129  A    between atoms: _363  and  _365
REMARK  130  A    between atoms: _365  and  _366
REMARK  131  A    between atoms: _365  and  _368
REMARK  132  A    between atoms: _368  and  _369
REMARK  133  A    between atoms: _379  and  _381
REMARK  134  A    between atoms: _381  and  _382
REMARK  135  A    between atoms: _381  and  _384
REMARK  136  A    between atoms: _384  and  _385
REMARK  137  A    between atoms: _390  and  _392
REMARK  138  A    between atoms: _392  and  _393
REMARK  139  A    between atoms: _392  and  _395
REMARK  140  A    between atoms: _395  and  _396
REMARK  141  A    between atoms: _396  and  _397
REMARK  142  A    between atoms: _397  and  _398
REMARK                            x       y       z     vdW  Elec       q    Type
REMARK                         _______ _______ _______ _____ _____    ______ ____
ROOT
ATOM      1  CA  VAL A   1      -3.485  12.277  20.014  0.00  0.00    +0.133 C 
ENDROOT
BRANCH   1   2
ATOM      2  CB  VAL A   1      -3.010  11.469  18.750  0.00  0.00    +0.023 C 
ATOM      3  CG2 VAL A   1      -4.174  10.701  18.133  0.00  0.00    +0.002 C 
ATOM      4  CG1 VAL A   1      -2.366  12.369  17.698  0.00  0.00    +0.002 C 
ENDBRANCH   1   2
BRANCH   1   5
ATOM      5  N   VAL A   1      -4.540  13.253  19.702  0.00  0.00    -0.239 NA
ATOM      6  H   VAL A   1      -4.592  13.651  18.743  0.00  0.00    +0.142 HD
ENDBRANCH   1   5
BRANCH   1   7
ATOM      7  C   VAL A   1      -2.312  12.888  20.806  0.00  0.00    +0.224 C 
ATOM      8  O   VAL A   1      -1.240  12.288  20.932  0.00  0.00    -0.287 OA
ENDBRANCH   1   7
TORSDOF 3
REMARK  Name = ../refined-set-2016/3bl0/3bl0_pocket.pdb
REMARK  142 active torsions:
REMARK  status: ('A' for Active; 'I' for Inactive)
REMARK    1  A    between atoms: _1  and  _3
REMARK    2  A    between atoms: _3  and  _4
REMARK    3  A    between atoms: _3  and  _6
REMARK    4  A    between atoms: _6  and  _7
REMARK    5  A    between atoms: _17  and  _19
REMARK    6  A    between atoms: _19  and  _20
REMARK    7  A    between atoms: _19  and  _22
REMARK    8  A    between atoms: _22  and  _23
REMARK    9  A    between atoms: _28  and  _29
REMARK   10  A    between atoms: _31  and  _33
REMARK   11  A    between atoms: _33  and  _34
REMARK   12  A    between atoms: _33  and  _36
REMARK   13  A    between atoms: _36  and  _37
REMARK   14  A    between atoms: _40  and  _41
REMARK   15  A    between atoms: _46  and  _48
REMARK   16  A    between atoms: _48  and  _49
REMARK   17  A    between atoms: _48  and  _51
REMARK   18  A    between atoms: _51  and  _52
REMARK   19  A    between atoms: _57  and  _59
REMARK   20  A    between atoms: _59  and  _60
REMARK   21  A    between atoms: _63  and  _65
REMARK   22  A    between atoms: _65  and  _66
REMARK   23  A    between atoms: _65  and  _68
REMARK   24  A    between atoms: _68  and  _69
REMARK   25  A    between atoms: _74  and  _76
REMARK   26  A    between atoms: _76  and  _77
REMARK   27  A    between atoms: _76  and  _79
REMARK   28  A    between atoms: _79  and  _80
REMARK   29  A    between atoms: _83  and  _85
REMARK   30  A    between atoms: _85  and  _86
REMARK   31  A    between atoms: _85  and  _88
REMARK   32  A    between atoms: _88  and  _89
REMARK   33  A    between atoms: _89  and  _90
REMARK   34  A    between atoms: _95  and  _97
REMARK   35  A    between atoms: _97  and  _98
REMARK   36  A    between atoms: _97  and  _100
REMARK   37  A    between atoms: _100  and  _101
REMARK   38  A    between atoms: _107  and  _109
REMARK   39  A    between atoms: _120  and  _123
REMARK   40  A    between atoms: _123  and  _124
REMARK   41  A    between atoms: _132  and  _133
REMARK   42  A    between atoms: _141  and  _143
REMARK   43  A    between atoms: _143  and  _144
REMARK   44  A    between atoms: _143  and  _146
REMARK   45  A    between atoms: _146  and  _147
REMARK   46  A    between atoms: _147  and  _148
REMARK   47  A    between atoms: _151  and  _153
REMARK   48  A    between atoms: _153  and  _154
REMARK   49  A    between atoms: _153  and  _156
REMARK   50  A    between atoms: _156  and  _157
REMARK   51  A    between atoms: _162  and  _164
REMARK   52  A    between atoms: _164  and  _165
REMARK   53  A    between atoms: _164  and  _167
REMARK   54  A    between atoms: _167  and  _168
REMARK   55  A    between atoms: _168  and  _169
REMARK   56  A    between atoms: _172  and  _174
REMARK   57  A    between atoms: _174  and  _175
REMARK   58  A    between atoms: _174  and  _177
REMARK   59  A    between atoms: _177  and  _178
REMARK   60  A    between atoms: _181  and  _183
REMARK   61  A    between atoms: _183  and  _184
REMARK   62  A    between atoms: _183  and  _186
REMARK   63  A    between atoms: _186  and  _187
REMARK   64  A    between atoms: _188  and  ZN_407
REMARK   65  A    between atoms: _192  and  _194
REMARK   66  A    between atoms: _194  and  _195
REMARK   67  A    between atoms: _194  and  _197
REMARK   68  A    between atoms: _197  and  _198
REMARK   69  A    between atoms: _201  and  _203
REMARK   70  A    between atoms: _203  and  _204
REMARK   71  A    between atoms: _203  and  _206
REMARK   72  A    between atoms: _209  and  _211
REMARK   73  A    between atoms: _211  and  _212
REMARK   74  A    between atoms: _211  and  _214
REMARK   75  A    between atoms: _214  and  _215
REMARK   76  A    between atoms: _220  and  _222
REMARK   77  A    between atoms: _222  and  _223
REMARK   78  A    between atoms: _222  and  _225
REMARK   79  A    between atoms: _225  and  _226
REMARK   80  A    between atoms: _236  and  _238
REMARK   81  A    between atoms: _238  and  _239
REMARK   82  A    between atoms: _238  and  _241
REMARK   83  A    between atoms: _241  and  _242
REMARK   84  A    between atoms: _248  and  _250
REMARK   85  A    between atoms: _250  and  _251
REMARK   86  A    between atoms: _250  and  _253
REMARK   87  A    between atoms: _256  and  _258
REMARK   88  A    between atoms: _258  and  _259
REMARK   89  A    between atoms: _258  and  _261
REMARK   90  A    between atoms: _261  and  _262
REMARK   91  A    between atoms: _265  and  _267
REMARK   92  A    between atoms: _267  and  _268
REMARK   93  A    between atoms: _271  and  _273
REMARK   94  A    between atoms: _273  and  _274
REMARK   95  A    between atoms: _273  and  _276
REMARK   96  A    between atoms: _279  and  _281
REMARK   97  A    between atoms: _281  and  _282
REMARK   98  A    between atoms: _281  and  _284
REMARK   99  A    between atoms: _284  and  _285
REMARK  100  A    between atoms: _288  and  _290
REMARK  101  A    between atoms: _290  and  _291
REMARK  102  A    between atoms: _290  and  _293
REMARK  103  A    between atoms: _293  and  _294
REMARK  104  A    between atoms: _296  and  _298
REMARK  105  A    between atoms: _298  and  _299
REMARK  106  A    between atoms: _298  and  _301
REMARK  107  A    between atoms: _301  and  _302
REMARK  108  A    between atoms: _305  and  _307
REMARK  109  A    between atoms: _307  and  _308
REMARK  110  A    between atoms: _307  and  _310
REMARK  111  A    between atoms: _310  and  _311
REMARK  112  A    between atoms: _314  and  _316
REMARK  113  A    between atoms: _316  and  _317
REMARK  114  A    between atoms: _316  and  _319
REMARK  115  A    between atoms: _319  and  _320
REMARK  116  A    between atoms: _324  and  _325
REMARK  117  A    between atoms: _331  and  _332
REMARK  118  A    between atoms: _337  and  _339
REMARK  119  A    between atoms: _339  and  _340
REMARK  120  A    between atoms: _339  and  _342
REMARK  121  A    between atoms: _342  and  _343
REMARK  122  A    between atoms: _346  and  _348
REMARK  123  A    between atoms: _348  and  _349
REMARK  124  A    between atoms: _348  and  _351
REMARK  125  A    between atoms: _351  and  _352
REMARK  126  A    between atoms: _355  and  _357
REMARK  127  A    between atoms: _357  and  _358
REMARK  128  A    between atoms: _357  and  _360
REMARK  129  A    between atoms: _363  and  _365
REMARK  130  A    between atoms: _365  and  _366
REMARK  131  A    between atoms: _365  and  _368
REMARK  132  A    between atoms: _368  and  _369
REMARK  133  A    between atoms: _379  and  _381
REMARK  134  A    between atoms: _381  and  _382
REMARK  135  A    between atoms: _381  and  _384
REMARK  136  A    between atoms: _384  and  _385
REMARK  137  A    between atoms: _390  and  _392
REMARK  138  A    between atoms: _392  and  _393
REMARK  139  A    between atoms: _392  and  _395
REMARK  140  A    between atoms: _395  and  _396
REMARK  141  A    between atoms: _396  and  _397
REMARK  142  A    between atoms: _397  and  _398
REMARK                            x       y       z     vdW  Elec       q    Type
REMARK                         _______ _______ _______ _____ _____    ______ ____
ROOT
ATOM      1  C   ALA A   2     -11.932   5.108  20.900  0.00  0.00    +0.241 C 
ATOM      2  N   VAL A   3     -11.558   3.865  21.184  0.00  0.00    -0.297 N 
ATOM      3  H   VAL A   3     -11.193   3.636  22.131  0.00  0.00    +0.150 HD
ATOM      4  O   ALA A   2     -12.295   5.445  19.766  0.00  0.00    -0.273 OA
ENDROOT
BRANCH   1   5
ATOM      5  CA  ALA A   2     -11.861   6.134  22.030  0.00  0.00    +0.149 C 
ATOM      6  CB  ALA A   2     -13.262   6.544  22.480  0.00  0.00    +0.031 C 
BRANCH   5   9
ATOM      7  C   LEU A   1     -10.150   7.878  22.309  0.00  0.00    +0.238 C 
ATOM      8  O   LEU A   1      -9.951   7.638  23.497  0.00  0.00    -0.274 OA
ATOM      9  N   ALA A   2     -11.110   7.307  21.582  0.00  0.00    -0.297 N 
ATOM     10  H   ALA A   2     -11.336   7.714  20.652  0.00  0.00    +0.150 HD
BRANCH   7  11
ATOM     11  CA  LEU A   1      -9.277   8.863  21.556  0.00  0.00    +0.145 C 
BRANCH  11  12
ATOM     12  N   LEU A   1      -8.663   9.884  22.403  0.00  0.00    -0.238 NA
ATOM     13  H   LEU A   1      -8.083   9.589  23.215  0.00  0.00    +0.142 HD
ENDBRANCH  11  12
BRANCH  11  14
ATOM     14  CB  LEU A   1      -8.209   8.063  20.808  0.00  0.00    +0.026 C 
BRANCH  14  15
ATOM     15  CG  LEU A   1      -7.242   8.781  19.868  0.00  0.00    +0.002 C 
ATOM     16  CD2 LEU A   1      -6.370   7.751  19.185  0.00  0.00    +0.000 C 
ATOM     17  CD1 LEU A   1      -7.986   9.635  18.842  0.00  0.00    +0.000 C 
ENDBRANCH  14  15
ENDBRANCH  11  14
ENDBRANCH   7  11
ENDBRANCH   5   9
ENDBRANCH   1   5
BRANCH   2  18
ATOM     18  CA  VAL A   3     -11.659   2.811  20.161  0.00  0.00    +0.149 C 
BRANCH  18  19
ATOM     19  C   VAL A   3     -12.636   1.741  20.609  0.00  0.00    +0.241 C 
ATOM     20  O   VAL A   3     -12.496   1.168  21.698  0.00  0.00    -0.273 OA
ATOM     21  N   LEU A   4     -13.632   1.498  19.761  0.00  0.00    -0.298 N 
ATOM     22  H   LEU A   4     -13.721   2.092  18.912  0.00  0.00    +0.150 HD
BRANCH  21  23
ATOM     23  CA  LEU A   4     -14.599   0.438  19.973  0.00  0.00    +0.137 C 
BRANCH  23  24
ATOM     24  C   LEU A   4     -14.080  -0.840  19.327  0.00  0.00    +0.227 C 
ATOM     25  O   LEU A   4     -13.915  -0.884  18.112  0.00  0.00    -0.286 OA
ENDBRANCH  23  24
BRANCH  23  26
ATOM     26  CB  LEU A   4     -15.926   0.822  19.311  0.00  0.00    +0.028 C 
BRANCH  26  27
ATOM     27  CG  LEU A   4     -17.284   0.547  19.955  0.00  0.00    +0.002 C 
ATOM     28  CD2 LEU A   4     -17.293  -0.531  21.042  0.00  0.00    +0.000 C 
ATOM     29  CD1 LEU A   4     -18.333   0.246  18.863  0.00  0.00    +0.000 C 
ENDBRANCH  26  27
ENDBRANCH  23  26
ENDBRANCH  21  23
ENDBRANCH  18  19
BRANCH  18  30
ATOM     30  CB  VAL A   3     -10.300   2.177  19.767  0.00  0.00    +0.027 C 
ATOM     31  CG2 VAL A   3      -9.278   3.260  19.445  0.00  0.00    +0.002 C 
ATOM     32  CG1 VAL A   3     -10.475   1.240  18.530  0.00  0.00    +0.002 C 
ENDBRANCH  18  30
ENDBRANCH   2  18
TORSDOF 13
REMARK  Name = ../refined-set-2016/3bl0/3bl0_pocket.pdb
REMARK  142 active torsions:
REMARK  status: ('A' for Active; 'I' for Inactive)
REMARK    1  A    between atoms: _1  and  _3
REMARK    2  A    between atoms: _3  and  _4
REMARK    3  A    between atoms: _3  and  _6
REMARK    4  A    between atoms: _6  and  _7
REMARK    5  A    between atoms: _17  and  _19
REMARK    6  A    between atoms: _19  and  _20
REMARK    7  A    between atoms: _19  and  _22
REMARK    8  A    between atoms: _22  and  _23
REMARK    9  A    between atoms: _28  and  _29
REMARK   10  A    between atoms: _31  and  _33
REMARK   11  A    between atoms: _33  and  _34
REMARK   12  A    between atoms: _33  and  _36
REMARK   13  A    between atoms: _36  and  _37
REMARK   14  A    between atoms: _40  and  _41
REMARK   15  A    between atoms: _46  and  _48
REMARK   16  A    between atoms: _48  and  _49
REMARK   17  A    between atoms: _48  and  _51
REMARK   18  A    between atoms: _51  and  _52
REMARK   19  A    between atoms: _57  and  _59
REMARK   20  A    between atoms: _59  and  _60
REMARK   21  A    between atoms: _63  and  _65
REMARK   22  A    between atoms: _65  and  _66
REMARK   23  A    between atoms: _65  and  _68
REMARK   24  A    between atoms: _68  and  _69
REMARK   25  A    between atoms: _74  and  _76
REMARK   26  A    between atoms: _76  and  _77
REMARK   27  A    between atoms: _76  and  _79
REMARK   28  A    between atoms: _79  and  _80
REMARK   29  A    between atoms: _83  and  _85
REMARK   30  A    between atoms: _85  and  _86
REMARK   31  A    between atoms: _85  and  _88
REMARK   32  A    between atoms: _88  and  _89
REMARK   33  A    between atoms: _89  and  _90
REMARK   34  A    between atoms: _95  and  _97
REMARK   35  A    between atoms: _97  and  _98
REMARK   36  A    between atoms: _97  and  _100
REMARK   37  A    between atoms: _100  and  _101
REMARK   38  A    between atoms: _107  and  _109
REMARK   39  A    between atoms: _120  and  _123
REMARK   40  A    between atoms: _123  and  _124
REMARK   41  A    between atoms: _132  and  _133
REMARK   42  A    between atoms: _141  and  _143
REMARK   43  A    between atoms: _143  and  _144
REMARK   44  A    between atoms: _143  and  _146
REMARK   45  A    between atoms: _146  and  _147
REMARK   46  A    between atoms: _147  and  _148
REMARK   47  A    between atoms: _151  and  _153
REMARK   48  A    between atoms: _153  and  _154
REMARK   49  A    between atoms: _153  and  _156
REMARK   50  A    between atoms: _156  and  _157
REMARK   51  A    between atoms: _162  and  _164
REMARK   52  A    between atoms: _164  and  _165
REMARK   53  A    between atoms: _164  and  _167
REMARK   54  A    between atoms: _167  and  _168
REMARK   55  A    between atoms: _168  and  _169
REMARK   56  A    between atoms: _172  and  _174
REMARK   57  A    between atoms: _174  and  _175
REMARK   58  A    between atoms: _174  and  _177
REMARK   59  A    between atoms: _177  and  _178
REMARK   60  A    between atoms: _181  and  _183
REMARK   61  A    between atoms: _183  and  _184
REMARK   62  A    between atoms: _183  and  _186
REMARK   63  A    between atoms: _186  and  _187
REMARK   64  A    between atoms: _188  and  ZN_407
REMARK   65  A    between atoms: _192  and  _194
REMARK   66  A    between atoms: _194  and  _195
REMARK   67  A    between atoms: _194  and  _197
REMARK   68  A    between atoms: _197  and  _198
REMARK   69  A    between atoms: _201  and  _203
REMARK   70  A    between atoms: _203  and  _204
REMARK   71  A    between atoms: _203  and  _206
REMARK   72  A    between atoms: _209  and  _211
REMARK   73  A    between atoms: _211  and  _212
REMARK   74  A    between atoms: _211  and  _214
REMARK   75  A    between atoms: _214  and  _215
REMARK   76  A    between atoms: _220  and  _222
REMARK   77  A    between atoms: _222  and  _223
REMARK   78  A    between atoms: _222  and  _225
REMARK   79  A    between atoms: _225  and  _226
REMARK   80  A    between atoms: _236  and  _238
REMARK   81  A    between atoms: _238  and  _239
REMARK   82  A    between atoms: _238  and  _241
REMARK   83  A    between atoms: _241  and  _242
REMARK   84  A    between atoms: _248  and  _250
REMARK   85  A    between atoms: _250  and  _251
REMARK   86  A    between atoms: _250  and  _253
REMARK   87  A    between atoms: _256  and  _258
REMARK   88  A    between atoms: _258  and  _259
REMARK   89  A    between atoms: _258  and  _261
REMARK   90  A    between atoms: _261  and  _262
REMARK   91  A    between atoms: _265  and  _267
REMARK   92  A    between atoms: _267  and  _268
REMARK   93  A    between atoms: _271  and  _273
REMARK   94  A    between atoms: _273  and  _274
REMARK   95  A    between atoms: _273  and  _276
REMARK   96  A    between atoms: _279  and  _281
REMARK   97  A    between atoms: _281  and  _282
REMARK   98  A    between atoms: _281  and  _284
REMARK   99  A    between atoms: _284  and  _285
REMARK  100  A    between atoms: _288  and  _290
REMARK  101  A    between atoms: _290  and  _291
REMARK  102  A    between atoms: _290  and  _293
REMARK  103  A    between atoms: _293  and  _294
REMARK  104  A    between atoms: _296  and  _298
REMARK  105  A    between atoms: _298  and  _299
REMARK  106  A    between atoms: _298  and  _301
REMARK  107  A    between atoms: _301  and  _302
REMARK  108  A    between atoms: _305  and  _307
REMARK  109  A    between atoms: _307  and  _308
REMARK  110  A    between atoms: _307  and  _310
REMARK  111  A    between atoms: _310  and  _311
REMARK  112  A    between atoms: _314  and  _316
REMARK  113  A    between atoms: _316  and  _317
REMARK  114  A    between atoms: _316  and  _319
REMARK  115  A    between atoms: _319  and  _320
REMARK  116  A    between atoms: _324  and  _325
REMARK  117  A    between atoms: _331  and  _332
REMARK  118  A    between atoms: _337  and  _339
REMARK  119  A    between atoms: _339  and  _340
REMARK  120  A    between atoms: _339  and  _342
REMARK  121  A    between atoms: _342  and  _343
REMARK  122  A    between atoms: _346  and  _348
REMARK  123  A    between atoms: _348  and  _349
REMARK  124  A    between atoms: _348  and  _351
REMARK  125  A    between atoms: _351  and  _352
REMARK  126  A    between atoms: _355  and  _357
REMARK  127  A    between atoms: _357  and  _358
REMARK  128  A    between atoms: _357  and  _360
REMARK  129  A    between atoms: _363  and  _365
REMARK  130  A    between atoms: _365  and  _366
REMARK  131  A    between atoms: _365  and  _368
REMARK  132  A    between atoms: _368  and  _369
REMARK  133  A    between atoms: _379  and  _381
REMARK  134  A    between atoms: _381  and  _382
REMARK  135  A    between atoms: _381  and  _384
REMARK  136  A    between atoms: _384  and  _385
REMARK  137  A    between atoms: _390  and  _392
REMARK  138  A    between atoms: _392  and  _393
REMARK  139  A    between atoms: _392  and  _395
REMARK  140  A    between atoms: _395  and  _396
REMARK  141  A    between atoms: _396  and  _397
REMARK  142  A    between atoms: _397  and  _398
REMARK                            x       y       z     vdW  Elec       q    Type
REMARK                         _______ _______ _______ _____ _____    ______ ____
ROOT
ATOM      1  C   THR A   4       1.052   1.279  16.445  0.00  0.00    +0.246 C 
ATOM      2  O   THR A   4       0.565   2.229  17.069  0.00  0.00    -0.273 OA
ATOM      3  N   PRO A   5       2.329   1.276  16.006  0.00  0.00    -0.272 N 
ATOM      4  CA  PRO A   5       3.080   2.524  16.068  0.00  0.00    +0.152 C 
ATOM      5  CB  PRO A   5       4.285   2.233  15.171  0.00  0.00    +0.031 C 
ATOM      6  CG  PRO A   5       4.549   0.776  15.406  0.00  0.00    +0.024 C 
ATOM      7  CD  PRO A   5       3.146   0.170  15.470  0.00  0.00    +0.094 C 
ENDROOT
BRANCH   4   8
ATOM      8  C   PRO A   5       2.234   3.678  15.512  0.00  0.00    +0.244 C 
ATOM      9  N   PRO A   6       2.319   4.882  16.112  0.00  0.00    -0.272 N 
ATOM     10  CA  PRO A   6       3.144   5.384  17.223  0.00  0.00    +0.152 C 
ATOM     11  CB  PRO A   6       2.957   6.906  17.129  0.00  0.00    +0.031 C 
ATOM     12  CG  PRO A   6       1.647   7.085  16.515  0.00  0.00    +0.024 C 
ATOM     13  CD  PRO A   6       1.470   5.946  15.547  0.00  0.00    +0.094 C 
ATOM     14  O   PRO A   5       1.486   3.470  14.552  0.00  0.00    -0.273 OA
BRANCH  10  15
ATOM     15  C   PRO A   6       2.778   4.896  18.644  0.00  0.00    +0.241 C 
ATOM     16  O   PRO A   6       3.416   5.322  19.600  0.00  0.00    -0.273 OA
ATOM     17  N   LEU A   7       1.783   4.013  18.775  0.00  0.00    -0.297 N 
ATOM     18  H   LEU A   7       1.235   3.750  17.931  0.00  0.00    +0.150 HD
BRANCH  17  19
ATOM     19  CA  LEU A   7       1.432   3.397  20.069  0.00  0.00    +0.149 C 
BRANCH  19  20
ATOM     20  C   LEU A   7       1.078   4.410  21.177  0.00  0.00    +0.241 C 
ATOM     21  O   LEU A   7       1.288   4.151  22.373  0.00  0.00    -0.273 OA
ATOM     22  N   LEU A   8       0.511   5.542  20.766  0.00  0.00    -0.298 N 
ATOM     23  H   LEU A   8       0.262   5.645  19.762  0.00  0.00    +0.150 HD
BRANCH  22  24
ATOM     24  CA  LEU A   8       0.227   6.649  21.686  0.00  0.00    +0.137 C 
BRANCH  24  25
ATOM     25  C   LEU A   8      -0.832   6.293  22.726  0.00  0.00    +0.227 C 
ATOM     26  O   LEU A   8      -1.840   5.660  22.415  0.00  0.00    -0.286 OA
ENDBRANCH  24  25
BRANCH  24  27
ATOM     27  CB  LEU A   8      -0.150   7.924  20.916  0.00  0.00    +0.028 C 
BRANCH  27  28
ATOM     28  CG  LEU A   8       0.879   8.409  19.872  0.00  0.00    +0.002 C 
ATOM     29  CD2 LEU A   8       2.128   8.980  20.547  0.00  0.00    +0.000 C 
ATOM     30  CD1 LEU A   8       0.269   9.425  18.908  0.00  0.00    +0.000 C 
ENDBRANCH  27  28
ENDBRANCH  24  27
ENDBRANCH  22  24
ENDBRANCH  19  20
BRANCH  19  31
ATOM     31  CB  LEU A   7       2.556   2.449  20.538  0.00  0.00    +0.029 C 
BRANCH  31  32
ATOM     32  CG  LEU A   7       2.893   1.248  19.637  0.00  0.00    +0.002 C 
ATOM     33  CD2 LEU A   7       4.225   0.630  20.032  0.00  0.00    +0.000 C 
ATOM     34  CD1 LEU A   7       1.786   0.186  19.701  0.00  0.00    +0.000 C 
ENDBRANCH  31  32
ENDBRANCH  19  31
ENDBRANCH  17  19
ENDBRANCH  10  15
ENDBRANCH   4   8
BRANCH   1  35
ATOM     35  CA  THR A   4       0.201   0.059  16.129  0.00  0.00    +0.176 C 
BRANCH  35  38
ATOM     36  C   THR A   3      -0.954  -1.117  17.962  0.00  0.00    +0.243 C 
ATOM     37  O   THR A   3      -0.302  -2.162  17.830  0.00  0.00    -0.273 OA
ATOM     38  N   THR A   4      -0.852  -0.071  17.142  0.00  0.00    -0.295 N 
ATOM     39  H   THR A   4      -1.554   0.691  17.225  0.00  0.00    +0.150 HD
BRANCH  36  40
ATOM     40  CA  THR A   3      -1.970  -0.986  19.088  0.00  0.00    +0.176 C 
BRANCH  40  43
ATOM     41  C   LEU A   2      -2.202   1.309  19.900  0.00  0.00    +0.241 C 
ATOM     42  O   LEU A   2      -1.207   1.176  20.619  0.00  0.00    -0.273 OA
ATOM     43  N   THR A   3      -2.652   0.321  19.123  0.00  0.00    -0.295 N 
ATOM     44  H   THR A   3      -3.495   0.475  18.534  0.00  0.00    +0.150 HD
BRANCH  41  45
ATOM     45  CA  LEU A   2      -2.971   2.642  19.891  0.00  0.00    +0.149 C 
BRANCH  45  48
ATOM     46  C   SER A   1      -3.523   2.529  22.256  0.00  0.00    +0.241 C 
ATOM     47  O   SER A   1      -4.355   1.642  22.102  0.00  0.00    -0.274 OA
ATOM     48  N   LEU A   2      -2.935   3.167  21.245  0.00  0.00    -0.297 N 
ATOM     49  H   LEU A   2      -2.439   4.062  21.429  0.00  0.00    +0.150 HD
BRANCH  46  50
ATOM     50  CA  SER A   1      -3.084   2.951  23.642  0.00  0.00    +0.174 C 
BRANCH  50  51
ATOM     51  N   SER A   1      -3.839   2.280  24.691  0.00  0.00    -0.236 NA
ATOM     52  H   SER A   1      -4.007   1.256  24.619  0.00  0.00    +0.142 HD
ENDBRANCH  50  51
BRANCH  50  53
ATOM     53  CB  SER A   1      -1.610   2.592  23.777  0.00  0.00    +0.163 C 
BRANCH  53  54
ATOM     54  OG  SER A   1      -1.400   1.255  23.355  0.00  0.00    -0.380 OA
ATOM     55  H   SER A   1      -1.675   1.162  22.408  0.00  0.00    +0.211 HD
ENDBRANCH  53  54
ENDBRANCH  50  53
ENDBRANCH  46  50
ENDBRANCH  45  48
BRANCH  45  56
ATOM     56  CB  LEU A   2      -2.336   3.653  18.916  0.00  0.00    +0.029 C 
BRANCH  56  57
ATOM     57  CG  LEU A   2      -3.008   5.011  18.651  0.00  0.00    +0.002 C 
ATOM     58  CD2 LEU A   2      -4.444   4.851  18.142  0.00  0.00    +0.000 C 
ATOM     59  CD1 LEU A   2      -2.165   5.825  17.668  0.00  0.00    +0.000 C 
ENDBRANCH  56  57
ENDBRANCH  45  56
ENDBRANCH  41  45
ENDBRANCH  40  43
BRANCH  40  60
ATOM     60  CB  THR A   3      -2.956  -2.153  18.958  0.00  0.00    +0.137 C 
ATOM     61  CG2 THR A   3      -4.032  -2.079  20.031  0.00  0.00    +0.034 C 
BRANCH  60  62
ATOM     62  OG1 THR A   3      -3.563  -2.110  17.661  0.00  0.00    -0.382 OA
ATOM     63  HG1 THR A   3      -4.201  -2.862  17.571  0.00  0.00    +0.210 HD
ENDBRANCH  60  62
ENDBRANCH  40  60
ENDBRANCH  36  40
ENDBRANCH  35  38
BRANCH  35  64
ATOM     64  CB  THR A   4      -0.384   0.248  14.705  0.00  0.00    +0.137 C 
ATOM     65  CG2 THR A   4      -1.183  -1.002  14.272  0.00  0.00    +0.034 C 
BRANCH  64  66
ATOM     66  OG1 THR A   4      -1.248   1.400  14.684  0.00  0.00    -0.382 OA
ATOM     67  HG1 THR A   4      -1.619   1.516  13.773  0.00  0.00    +0.210 HD
ENDBRANCH  64  66
ENDBRANCH  35  64
ENDBRANCH   1  35
TORSDOF 26
REMARK  Name = ../refined-set-2016/3bl0/3bl0_pocket.pdb
REMARK  142 active torsions:
REMARK  status: ('A' for Active; 'I' for Inactive)
REMARK    1  A    between atoms: _1  and  _3
REMARK    2  A    between atoms: _3  and  _4
REMARK    3  A    between atoms: _3  and  _6
REMARK    4  A    between atoms: _6  and  _7
REMARK    5  A    between atoms: _17  and  _19
REMARK    6  A    between atoms: _19  and  _20
REMARK    7  A    between atoms: _19  and  _22
REMARK    8  A    between atoms: _22  and  _23
REMARK    9  A    between atoms: _28  and  _29
REMARK   10  A    between atoms: _31  and  _33
REMARK   11  A    between atoms: _33  and  _34
REMARK   12  A    between atoms: _33  and  _36
REMARK   13  A    between atoms: _36  and  _37
REMARK   14  A    between atoms: _40  and  _41
REMARK   15  A    between atoms: _46  and  _48
REMARK   16  A    between atoms: _48  and  _49
REMARK   17  A    between atoms: _48  and  _51
REMARK   18  A    between atoms: _51  and  _52
REMARK   19  A    between atoms: _57  and  _59
REMARK   20  A    between atoms: _59  and  _60
REMARK   21  A    between atoms: _63  and  _65
REMARK   22  A    between atoms: _65  and  _66
REMARK   23  A    between atoms: _65  and  _68
REMARK   24  A    between atoms: _68  and  _69
REMARK   25  A    between atoms: _74  and  _76
REMARK   26  A    between atoms: _76  and  _77
REMARK   27  A    between atoms: _76  and  _79
REMARK   28  A    between atoms: _79  and  _80
REMARK   29  A    between atoms: _83  and  _85
REMARK   30  A    between atoms: _85  and  _86
REMARK   31  A    between atoms: _85  and  _88
REMARK   32  A    between atoms: _88  and  _89
REMARK   33  A    between atoms: _89  and  _90
REMARK   34  A    between atoms: _95  and  _97
REMARK   35  A    between atoms: _97  and  _98
REMARK   36  A    between atoms: _97  and  _100
REMARK   37  A    between atoms: _100  and  _101
REMARK   38  A    between atoms: _107  and  _109
REMARK   39  A    between atoms: _120  and  _123
REMARK   40  A    between atoms: _123  and  _124
REMARK   41  A    between atoms: _132  and  _133
REMARK   42  A    between atoms: _141  and  _143
REMARK   43  A    between atoms: _143  and  _144
REMARK   44  A    between atoms: _143  and  _146
REMARK   45  A    between atoms: _146  and  _147
REMARK   46  A    between atoms: _147  and  _148
REMARK   47  A    between atoms: _151  and  _153
REMARK   48  A    between atoms: _153  and  _154
REMARK   49  A    between atoms: _153  and  _156
REMARK   50  A    between atoms: _156  and  _157
REMARK   51  A    between atoms: _162  and  _164
REMARK   52  A    between atoms: _164  and  _165
REMARK   53  A    between atoms: _164  and  _167
REMARK   54  A    between atoms: _167  and  _168
REMARK   55  A    between atoms: _168  and  _169
REMARK   56  A    between atoms: _172  and  _174
REMARK   57  A    between atoms: _174  and  _175
REMARK   58  A    between atoms: _174  and  _177
REMARK   59  A    between atoms: _177  and  _178
REMARK   60  A    between atoms: _181  and  _183
REMARK   61  A    between atoms: _183  and  _184
REMARK   62  A    between atoms: _183  and  _186
REMARK   63  A    between atoms: _186  and  _187
REMARK   64  A    between atoms: _188  and  ZN_407
REMARK   65  A    between atoms: _192  and  _194
REMARK   66  A    between atoms: _194  and  _195
REMARK   67  A    between atoms: _194  and  _197
REMARK   68  A    between atoms: _197  and  _198
REMARK   69  A    between atoms: _201  and  _203
REMARK   70  A    between atoms: _203  and  _204
REMARK   71  A    between atoms: _203  and  _206
REMARK   72  A    between atoms: _209  and  _211
REMARK   73  A    between atoms: _211  and  _212
REMARK   74  A    between atoms: _211  and  _214
REMARK   75  A    between atoms: _214  and  _215
REMARK   76  A    between atoms: _220  and  _222
REMARK   77  A    between atoms: _222  and  _223
REMARK   78  A    between atoms: _222  and  _225
REMARK   79  A    between atoms: _225  and  _226
REMARK   80  A    between atoms: _236  and  _238
REMARK   81  A    between atoms: _238  and  _239
REMARK   82  A    between atoms: _238  and  _241
REMARK   83  A    between atoms: _241  and  _242
REMARK   84  A    between atoms: _248  and  _250
REMARK   85  A    between atoms: _250  and  _251
REMARK   86  A    between atoms: _250  and  _253
REMARK   87  A    between atoms: _256  and  _258
REMARK   88  A    between atoms: _258  and  _259
REMARK   89  A    between atoms: _258  and  _261
REMARK   90  A    between atoms: _261  and  _262
REMARK   91  A    between atoms: _265  and  _267
REMARK   92  A    between atoms: _267  and  _268
REMARK   93  A    between atoms: _271  and  _273
REMARK   94  A    between atoms: _273  and  _274
REMARK   95  A    between atoms: _273  and  _276
REMARK   96  A    between atoms: _279  and  _281
REMARK   97  A    between atoms: _281  and  _282
REMARK   98  A    between atoms: _281  and  _284
REMARK   99  A    between atoms: _284  and  _285
REMARK  100  A    between atoms: _288  and  _290
REMARK  101  A    between atoms: _290  and  _291
REMARK  102  A    between atoms: _290  and  _293
REMARK  103  A    between atoms: _293  and  _294
REMARK  104  A    between atoms: _296  and  _298
REMARK  105  A    between atoms: _298  and  _299
REMARK  106  A    between atoms: _298  and  _301
REMARK  107  A    between atoms: _301  and  _302
REMARK  108  A    between atoms: _305  and  _307
REMARK  109  A    between atoms: _307  and  _308
REMARK  110  A    between atoms: _307  and  _310
REMARK  111  A    between atoms: _310  and  _311
REMARK  112  A    between atoms: _314  and  _316
REMARK  113  A    between atoms: _316  and  _317
REMARK  114  A    between atoms: _316  and  _319
REMARK  115  A    between atoms: _319  and  _320
REMARK  116  A    between atoms: _324  and  _325
REMARK  117  A    between atoms: _331  and  _332
REMARK  118  A    between atoms: _337  and  _339
REMARK  119  A    between atoms: _339  and  _340
REMARK  120  A    between atoms: _339  and  _342
REMARK  121  A    between atoms: _342  and  _343
REMARK  122  A    between atoms: _346  and  _348
REMARK  123  A    between atoms: _348  and  _349
REMARK  124  A    between atoms: _348  and  _351
REMARK  125  A    between atoms: _351  and  _352
REMARK  126  A    between atoms: _355  and  _357
REMARK  127  A    between atoms: _357  and  _358
REMARK  128  A    between atoms: _357  and  _360
REMARK  129  A    between atoms: _363  and  _365
REMARK  130  A    between atoms: _365  and  _366
REMARK  131  A    between atoms: _365  and  _368
REMARK  132  A    between atoms: _368  and  _369
REMARK  133  A    between atoms: _379  and  _381
REMARK  134  A    between atoms: _381  and  _382
REMARK  135  A    between atoms: _381  and  _384
REMARK  136  A    between atoms: _384  and  _385
REMARK  137  A    between atoms: _390  and  _392
REMARK  138  A    between atoms: _392  and  _393
REMARK  139  A    between atoms: _392  and  _395
REMARK  140  A    between atoms: _395  and  _396
REMARK  141  A    between atoms: _396  and  _397
REMARK  142  A    between atoms: _397  and  _398
REMARK                            x       y       z     vdW  Elec       q    Type
REMARK                         _______ _______ _______ _____ _____    ______ ____
ROOT
ATOM      1  CA  VAL A   1      -7.180   5.681  24.047  0.00  0.00    +0.133 C 
ENDROOT
BRANCH   1   2
ATOM      2  CB  VAL A   1      -6.887   4.417  23.148  0.00  0.00    +0.023 C 
ATOM      3  CG2 VAL A   1      -8.185   3.692  22.794  0.00  0.00    +0.002 C 
ATOM      4  CG1 VAL A   1      -6.138   4.803  21.868  0.00  0.00    +0.002 C 
ENDBRANCH   1   2
BRANCH   1   5
ATOM      5  N   VAL A   1      -5.952   6.461  24.309  0.00  0.00    -0.239 NA
ATOM      6  H   VAL A   1      -5.094   5.946  24.593  0.00  0.00    +0.142 HD
ENDBRANCH   1   5
BRANCH   1   7
ATOM      7  C   VAL A   1      -7.970   5.221  25.285  0.00  0.00    +0.224 C 
ATOM      8  O   VAL A   1      -7.422   4.630  26.222  0.00  0.00    -0.287 OA
ENDBRANCH   1   7
TORSDOF 3
REMARK  Name = ../refined-set-2016/3bl0/3bl0_pocket.pdb
REMARK  142 active torsions:
REMARK  status: ('A' for Active; 'I' for Inactive)
REMARK    1  A    between atoms: _1  and  _3
REMARK    2  A    between atoms: _3  and  _4
REMARK    3  A    between atoms: _3  and  _6
REMARK    4  A    between atoms: _6  and  _7
REMARK    5  A    between atoms: _17  and  _19
REMARK    6  A    between atoms: _19  and  _20
REMARK    7  A    between atoms: _19  and  _22
REMARK    8  A    between atoms: _22  and  _23
REMARK    9  A    between atoms: _28  and  _29
REMARK   10  A    between atoms: _31  and  _33
REMARK   11  A    between atoms: _33  and  _34
REMARK   12  A    between atoms: _33  and  _36
REMARK   13  A    between atoms: _36  and  _37
REMARK   14  A    between atoms: _40  and  _41
REMARK   15  A    between atoms: _46  and  _48
REMARK   16  A    between atoms: _48  and  _49
REMARK   17  A    between atoms: _48  and  _51
REMARK   18  A    between atoms: _51  and  _52
REMARK   19  A    between atoms: _57  and  _59
REMARK   20  A    between atoms: _59  and  _60
REMARK   21  A    between atoms: _63  and  _65
REMARK   22  A    between atoms: _65  and  _66
REMARK   23  A    between atoms: _65  and  _68
REMARK   24  A    between atoms: _68  and  _69
REMARK   25  A    between atoms: _74  and  _76
REMARK   26  A    between atoms: _76  and  _77
REMARK   27  A    between atoms: _76  and  _79
REMARK   28  A    between atoms: _79  and  _80
REMARK   29  A    between atoms: _83  and  _85
REMARK   30  A    between atoms: _85  and  _86
REMARK   31  A    between atoms: _85  and  _88
REMARK   32  A    between atoms: _88  and  _89
REMARK   33  A    between atoms: _89  and  _90
REMARK   34  A    between atoms: _95  and  _97
REMARK   35  A    between atoms: _97  and  _98
REMARK   36  A    between atoms: _97  and  _100
REMARK   37  A    between atoms: _100  and  _101
REMARK   38  A    between atoms: _107  and  _109
REMARK   39  A    between atoms: _120  and  _123
REMARK   40  A    between atoms: _123  and  _124
REMARK   41  A    between atoms: _132  and  _133
REMARK   42  A    between atoms: _141  and  _143
REMARK   43  A    between atoms: _143  and  _144
REMARK   44  A    between atoms: _143  and  _146
REMARK   45  A    between atoms: _146  and  _147
REMARK   46  A    between atoms: _147  and  _148
REMARK   47  A    between atoms: _151  and  _153
REMARK   48  A    between atoms: _153  and  _154
REMARK   49  A    between atoms: _153  and  _156
REMARK   50  A    between atoms: _156  and  _157
REMARK   51  A    between atoms: _162  and  _164
REMARK   52  A    between atoms: _164  and  _165
REMARK   53  A    between atoms: _164  and  _167
REMARK   54  A    between atoms: _167  and  _168
REMARK   55  A    between atoms: _168  and  _169
REMARK   56  A    between atoms: _172  and  _174
REMARK   57  A    between atoms: _174  and  _175
REMARK   58  A    between atoms: _174  and  _177
REMARK   59  A    between atoms: _177  and  _178
REMARK   60  A    between atoms: _181  and  _183
REMARK   61  A    between atoms: _183  and  _184
REMARK   62  A    between atoms: _183  and  _186
REMARK   63  A    between atoms: _186  and  _187
REMARK   64  A    between atoms: _188  and  ZN_407
REMARK   65  A    between atoms: _192  and  _194
REMARK   66  A    between atoms: _194  and  _195
REMARK   67  A    between atoms: _194  and  _197
REMARK   68  A    between atoms: _197  and  _198
REMARK   69  A    between atoms: _201  and  _203
REMARK   70  A    between atoms: _203  and  _204
REMARK   71  A    between atoms: _203  and  _206
REMARK   72  A    between atoms: _209  and  _211
REMARK   73  A    between atoms: _211  and  _212
REMARK   74  A    between atoms: _211  and  _214
REMARK   75  A    between atoms: _214  and  _215
REMARK   76  A    between atoms: _220  and  _222
REMARK   77  A    between atoms: _222  and  _223
REMARK   78  A    between atoms: _222  and  _225
REMARK   79  A    between atoms: _225  and  _226
REMARK   80  A    between atoms: _236  and  _238
REMARK   81  A    between atoms: _238  and  _239
REMARK   82  A    between atoms: _238  and  _241
REMARK   83  A    between atoms: _241  and  _242
REMARK   84  A    between atoms: _248  and  _250
REMARK   85  A    between atoms: _250  and  _251
REMARK   86  A    between atoms: _250  and  _253
REMARK   87  A    between atoms: _256  and  _258
REMARK   88  A    between atoms: _258  and  _259
REMARK   89  A    between atoms: _258  and  _261
REMARK   90  A    between atoms: _261  and  _262
REMARK   91  A    between atoms: _265  and  _267
REMARK   92  A    between atoms: _267  and  _268
REMARK   93  A    between atoms: _271  and  _273
REMARK   94  A    between atoms: _273  and  _274
REMARK   95  A    between atoms: _273  and  _276
REMARK   96  A    between atoms: _279  and  _281
REMARK   97  A    between atoms: _281  and  _282
REMARK   98  A    between atoms: _281  and  _284
REMARK   99  A    between atoms: _284  and  _285
REMARK  100  A    between atoms: _288  and  _290
REMARK  101  A    between atoms: _290  and  _291
REMARK  102  A    between atoms: _290  and  _293
REMARK  103  A    between atoms: _293  and  _294
REMARK  104  A    between atoms: _296  and  _298
REMARK  105  A    between atoms: _298  and  _299
REMARK  106  A    between atoms: _298  and  _301
REMARK  107  A    between atoms: _301  and  _302
REMARK  108  A    between atoms: _305  and  _307
REMARK  109  A    between atoms: _307  and  _308
REMARK  110  A    between atoms: _307  and  _310
REMARK  111  A    between atoms: _310  and  _311
REMARK  112  A    between atoms: _314  and  _316
REMARK  113  A    between atoms: _316  and  _317
REMARK  114  A    between atoms: _316  and  _319
REMARK  115  A    between atoms: _319  and  _320
REMARK  116  A    between atoms: _324  and  _325
REMARK  117  A    between atoms: _331  and  _332
REMARK  118  A    between atoms: _337  and  _339
REMARK  119  A    between atoms: _339  and  _340
REMARK  120  A    between atoms: _339  and  _342
REMARK  121  A    between atoms: _342  and  _343
REMARK  122  A    between atoms: _346  and  _348
REMARK  123  A    between atoms: _348  and  _349
REMARK  124  A    between atoms: _348  and  _351
REMARK  125  A    between atoms: _351  and  _352
REMARK  126  A    between atoms: _355  and  _357
REMARK  127  A    between atoms: _357  and  _358
REMARK  128  A    between atoms: _357  and  _360
REMARK  129  A    between atoms: _363  and  _365
REMARK  130  A    between atoms: _365  and  _366
REMARK  131  A    between atoms: _365  and  _368
REMARK  132  A    between atoms: _368  and  _369
REMARK  133  A    between atoms: _379  and  _381
REMARK  134  A    between atoms: _381  and  _382
REMARK  135  A    between atoms: _381  and  _384
REMARK  136  A    between atoms: _384  and  _385
REMARK  137  A    between atoms: _390  and  _392
REMARK  138  A    between atoms: _392  and  _393
REMARK  139  A    between atoms: _392  and  _395
REMARK  140  A    between atoms: _395  and  _396
REMARK  141  A    between atoms: _396  and  _397
REMARK  142  A    between atoms: _397  and  _398
REMARK                            x       y       z     vdW  Elec       q    Type
REMARK                         _______ _______ _______ _____ _____    ______ ____
ROOT
ATOM      1  CG  TRP A   1      -8.674   0.158  24.192  0.00  0.00    -0.002 A 
ATOM      2  CD1 TRP A   1      -7.437   0.704  24.350  0.00  0.00    +0.068 A 
ATOM      3  NE1 TRP A   1      -6.735   0.630  23.174  0.00  0.00    -0.352 N 
ATOM      4  HE1 TRP A   1      -5.771   0.990  23.022  0.00  0.00    +0.166 HD
ATOM      5  CE2 TRP A   1      -7.511   0.004  22.231  0.00  0.00    +0.056 A 
ATOM      6  CZ2 TRP A   1      -7.239  -0.304  20.895  0.00  0.00    +0.017 A 
ATOM      7  CH2 TRP A   1      -8.231  -0.934  20.173  0.00  0.00    +0.001 A 
ATOM      8  CZ3 TRP A   1      -9.473  -1.249  20.753  0.00  0.00    +0.000 A 
ATOM      9  CE3 TRP A   1      -9.744  -0.929  22.079  0.00  0.00    +0.001 A 
ATOM     10  CD2 TRP A   1      -8.749  -0.296  22.839  0.00  0.00    +0.013 A 
ENDROOT
BRANCH   1  11
ATOM     11  CB  TRP A   1      -9.752   0.063  25.215  0.00  0.00    +0.053 C 
BRANCH  11  12
ATOM     12  CA  TRP A   1     -10.788   1.180  25.072  0.00  0.00    +0.137 C 
BRANCH  12  13
ATOM     13  N   TRP A   1     -10.381   2.383  25.769  0.00  0.00    -0.239 NA
ATOM     14  H   TRP A   1      -9.807   2.304  26.633  0.00  0.00    +0.142 HD
ENDBRANCH  12  13
BRANCH  12  15
ATOM     15  C   TRP A   1     -12.134   0.712  25.564  0.00  0.00    +0.224 C 
ATOM     16  O   TRP A   1     -12.389   0.641  26.770  0.00  0.00    -0.287 OA
ENDBRANCH  12  15
ENDBRANCH  11  12
ENDBRANCH   1  11
TORSDOF 4
REMARK  Name = ../refined-set-2016/3bl0/3bl0_pocket.pdb
REMARK  142 active torsions:
REMARK  status: ('A' for Active; 'I' for Inactive)
REMARK    1  A    between atoms: _1  and  _3
REMARK    2  A    between atoms: _3  and  _4
REMARK    3  A    between atoms: _3  and  _6
REMARK    4  A    between atoms: _6  and  _7
REMARK    5  A    between atoms: _17  and  _19
REMARK    6  A    between atoms: _19  and  _20
REMARK    7  A    between atoms: _19  and  _22
REMARK    8  A    between atoms: _22  and  _23
REMARK    9  A    between atoms: _28  and  _29
REMARK   10  A    between atoms: _31  and  _33
REMARK   11  A    between atoms: _33  and  _34
REMARK   12  A    between atoms: _33  and  _36
REMARK   13  A    between atoms: _36  and  _37
REMARK   14  A    between atoms: _40  and  _41
REMARK   15  A    between atoms: _46  and  _48
REMARK   16  A    between atoms: _48  and  _49
REMARK   17  A    between atoms: _48  and  _51
REMARK   18  A    between atoms: _51  and  _52
REMARK   19  A    between atoms: _57  and  _59
REMARK   20  A    between atoms: _59  and  _60
REMARK   21  A    between atoms: _63  and  _65
REMARK   22  A    between atoms: _65  and  _66
REMARK   23  A    between atoms: _65  and  _68
REMARK   24  A    between atoms: _68  and  _69
REMARK   25  A    between atoms: _74  and  _76
REMARK   26  A    between atoms: _76  and  _77
REMARK   27  A    between atoms: _76  and  _79
REMARK   28  A    between atoms: _79  and  _80
REMARK   29  A    between atoms: _83  and  _85
REMARK   30  A    between atoms: _85  and  _86
REMARK   31  A    between atoms: _85  and  _88
REMARK   32  A    between atoms: _88  and  _89
REMARK   33  A    between atoms: _89  and  _90
REMARK   34  A    between atoms: _95  and  _97
REMARK   35  A    between atoms: _97  and  _98
REMARK   36  A    between atoms: _97  and  _100
REMARK   37  A    between atoms: _100  and  _101
REMARK   38  A    between atoms: _107  and  _109
REMARK   39  A    between atoms: _120  and  _123
REMARK   40  A    between atoms: _123  and  _124
REMARK   41  A    between atoms: _132  and  _133
REMARK   42  A    between atoms: _141  and  _143
REMARK   43  A    between atoms: _143  and  _144
REMARK   44  A    between atoms: _143  and  _146
REMARK   45  A    between atoms: _146  and  _147
REMARK   46  A    between atoms: _147  and  _148
REMARK   47  A    between atoms: _151  and  _153
REMARK   48  A    between atoms: _153  and  _154
REMARK   49  A    between atoms: _153  and  _156
REMARK   50  A    between atoms: _156  and  _157
REMARK   51  A    between atoms: _162  and  _164
REMARK   52  A    between atoms: _164  and  _165
REMARK   53  A    between atoms: _164  and  _167
REMARK   54  A    between atoms: _167  and  _168
REMARK   55  A    between atoms: _168  and  _169
REMARK   56  A    between atoms: _172  and  _174
REMARK   57  A    between atoms: _174  and  _175
REMARK   58  A    between atoms: _174  and  _177
REMARK   59  A    between atoms: _177  and  _178
REMARK   60  A    between atoms: _181  and  _183
REMARK   61  A    between atoms: _183  and  _184
REMARK   62  A    between atoms: _183  and  _186
REMARK   63  A    between atoms: _186  and  _187
REMARK   64  A    between atoms: _188  and  ZN_407
REMARK   65  A    between atoms: _192  and  _194
REMARK   66  A    between atoms: _194  and  _195
REMARK   67  A    between atoms: _194  and  _197
REMARK   68  A    between atoms: _197  and  _198
REMARK   69  A    between atoms: _201  and  _203
REMARK   70  A    between atoms: _203  and  _204
REMARK   71  A    between atoms: _203  and  _206
REMARK   72  A    between atoms: _209  and  _211
REMARK   73  A    between atoms: _211  and  _212
REMARK   74  A    between atoms: _211  and  _214
REMARK   75  A    between atoms: _214  and  _215
REMARK   76  A    between atoms: _220  and  _222
REMARK   77  A    between atoms: _222  and  _223
REMARK   78  A    between atoms: _222  and  _225
REMARK   79  A    between atoms: _225  and  _226
REMARK   80  A    between atoms: _236  and  _238
REMARK   81  A    between atoms: _238  and  _239
REMARK   82  A    between atoms: _238  and  _241
REMARK   83  A    between atoms: _241  and  _242
REMARK   84  A    between atoms: _248  and  _250
REMARK   85  A    between atoms: _250  and  _251
REMARK   86  A    between atoms: _250  and  _253
REMARK   87  A    between atoms: _256  and  _258
REMARK   88  A    between atoms: _258  and  _259
REMARK   89  A    between atoms: _258  and  _261
REMARK   90  A    between atoms: _261  and  _262
REMARK   91  A    between atoms: _265  and  _267
REMARK   92  A    between atoms: _267  and  _268
REMARK   93  A    between atoms: _271  and  _273
REMARK   94  A    between atoms: _273  and  _274
REMARK   95  A    between atoms: _273  and  _276
REMARK   96  A    between atoms: _279  and  _281
REMARK   97  A    between atoms: _281  and  _282
REMARK   98  A    between atoms: _281  and  _284
REMARK   99  A    between atoms: _284  and  _285
REMARK  100  A    between atoms: _288  and  _290
REMARK  101  A    between atoms: _290  and  _291
REMARK  102  A    between atoms: _290  and  _293
REMARK  103  A    between atoms: _293  and  _294
REMARK  104  A    between atoms: _296  and  _298
REMARK  105  A    between atoms: _298  and  _299
REMARK  106  A    between atoms: _298  and  _301
REMARK  107  A    between atoms: _301  and  _302
REMARK  108  A    between atoms: _305  and  _307
REMARK  109  A    between atoms: _307  and  _308
REMARK  110  A    between atoms: _307  and  _310
REMARK  111  A    between atoms: _310  and  _311
REMARK  112  A    between atoms: _314  and  _316
REMARK  113  A    between atoms: _316  and  _317
REMARK  114  A    between atoms: _316  and  _319
REMARK  115  A    between atoms: _319  and  _320
REMARK  116  A    between atoms: _324  and  _325
REMARK  117  A    between atoms: _331  and  _332
REMARK  118  A    between atoms: _337  and  _339
REMARK  119  A    between atoms: _339  and  _340
REMARK  120  A    between atoms: _339  and  _342
REMARK  121  A    between atoms: _342  and  _343
REMARK  122  A    between atoms: _346  and  _348
REMARK  123  A    between atoms: _348  and  _349
REMARK  124  A    between atoms: _348  and  _351
REMARK  125  A    between atoms: _351  and  _352
REMARK  126  A    between atoms: _355  and  _357
REMARK  127  A    between atoms: _357  and  _358
REMARK  128  A    between atoms: _357  and  _360
REMARK  129  A    between atoms: _363  and  _365
REMARK  130  A    between atoms: _365  and  _366
REMARK  131  A    between atoms: _365  and  _368
REMARK  132  A    between atoms: _368  and  _369
REMARK  133  A    between atoms: _379  and  _381
REMARK  134  A    between atoms: _381  and  _382
REMARK  135  A    between atoms: _381  and  _384
REMARK  136  A    between atoms: _384  and  _385
REMARK  137  A    between atoms: _390  and  _392
REMARK  138  A    between atoms: _392  and  _393
REMARK  139  A    between atoms: _392  and  _395
REMARK  140  A    between atoms: _395  and  _396
REMARK  141  A    between atoms: _396  and  _397
REMARK  142  A    between atoms: _397  and  _398
REMARK                            x       y       z     vdW  Elec       q    Type
REMARK                         _______ _______ _______ _____ _____    ______ ____
ROOT
ATOM      1  CB  ASN A   1      -1.996  -7.450  10.439  0.00  0.00    +0.110 C 
ENDROOT
BRANCH   1   2
ATOM      2  CG  ASN A   1      -3.451  -7.695  10.103  0.00  0.00    +0.221 C 
ATOM      3  OD1 ASN A   1      -4.123  -8.516  10.746  0.00  0.00    -0.275 OA
ATOM      4  ND2 ASN A   1      -3.953  -6.990   9.086  0.00  0.00    -0.329 N 
ATOM      5 HD21 ASN A   1      -4.946  -7.118   8.804  0.00  0.00    +0.145 HD
ATOM      6 HD22 ASN A   1      -3.351  -6.312   8.576  0.00  0.00    +0.145 HD
ENDBRANCH   1   2
BRANCH   1   7
ATOM      7  CA  ASN A   1      -1.504  -8.318  11.597  0.00  0.00    +0.142 C 
BRANCH   7   8
ATOM      8  N   ASN A   1      -1.829  -9.720  11.341  0.00  0.00    -0.239 NA
ATOM      9  H   ASN A   1      -2.742  -9.957  10.903  0.00  0.00    +0.142 HD
ENDBRANCH   7   8
BRANCH   7  10
ATOM     10  C   ASN A   1      -2.053  -7.838  12.949  0.00  0.00    +0.225 C 
ATOM     11  O   ASN A   1      -2.730  -6.815  13.042  0.00  0.00    -0.287 OA
ENDBRANCH   7  10
ENDBRANCH   1   7
TORSDOF 4
REMARK  Name = ../refined-set-2016/3bl0/3bl0_pocket.pdb
REMARK  142 active torsions:
REMARK  status: ('A' for Active; 'I' for Inactive)
REMARK    1  A    between atoms: _1  and  _3
REMARK    2  A    between atoms: _3  and  _4
REMARK    3  A    between atoms: _3  and  _6
REMARK    4  A    between atoms: _6  and  _7
REMARK    5  A    between atoms: _17  and  _19
REMARK    6  A    between atoms: _19  and  _20
REMARK    7  A    between atoms: _19  and  _22
REMARK    8  A    between atoms: _22  and  _23
REMARK    9  A    between atoms: _28  and  _29
REMARK   10  A    between atoms: _31  and  _33
REMARK   11  A    between atoms: _33  and  _34
REMARK   12  A    between atoms: _33  and  _36
REMARK   13  A    between atoms: _36  and  _37
REMARK   14  A    between atoms: _40  and  _41
REMARK   15  A    between atoms: _46  and  _48
REMARK   16  A    between atoms: _48  and  _49
REMARK   17  A    between atoms: _48  and  _51
REMARK   18  A    between atoms: _51  and  _52
REMARK   19  A    between atoms: _57  and  _59
REMARK   20  A    between atoms: _59  and  _60
REMARK   21  A    between atoms: _63  and  _65
REMARK   22  A    between atoms: _65  and  _66
REMARK   23  A    between atoms: _65  and  _68
REMARK   24  A    between atoms: _68  and  _69
REMARK   25  A    between atoms: _74  and  _76
REMARK   26  A    between atoms: _76  and  _77
REMARK   27  A    between atoms: _76  and  _79
REMARK   28  A    between atoms: _79  and  _80
REMARK   29  A    between atoms: _83  and  _85
REMARK   30  A    between atoms: _85  and  _86
REMARK   31  A    between atoms: _85  and  _88
REMARK   32  A    between atoms: _88  and  _89
REMARK   33  A    between atoms: _89  and  _90
REMARK   34  A    between atoms: _95  and  _97
REMARK   35  A    between atoms: _97  and  _98
REMARK   36  A    between atoms: _97  and  _100
REMARK   37  A    between atoms: _100  and  _101
REMARK   38  A    between atoms: _107  and  _109
REMARK   39  A    between atoms: _120  and  _123
REMARK   40  A    between atoms: _123  and  _124
REMARK   41  A    between atoms: _132  and  _133
REMARK   42  A    between atoms: _141  and  _143
REMARK   43  A    between atoms: _143  and  _144
REMARK   44  A    between atoms: _143  and  _146
REMARK   45  A    between atoms: _146  and  _147
REMARK   46  A    between atoms: _147  and  _148
REMARK   47  A    between atoms: _151  and  _153
REMARK   48  A    between atoms: _153  and  _154
REMARK   49  A    between atoms: _153  and  _156
REMARK   50  A    between atoms: _156  and  _157
REMARK   51  A    between atoms: _162  and  _164
REMARK   52  A    between atoms: _164  and  _165
REMARK   53  A    between atoms: _164  and  _167
REMARK   54  A    between atoms: _167  and  _168
REMARK   55  A    between atoms: _168  and  _169
REMARK   56  A    between atoms: _172  and  _174
REMARK   57  A    between atoms: _174  and  _175
REMARK   58  A    between atoms: _174  and  _177
REMARK   59  A    between atoms: _177  and  _178
REMARK   60  A    between atoms: _181  and  _183
REMARK   61  A    between atoms: _183  and  _184
REMARK   62  A    between atoms: _183  and  _186
REMARK   63  A    between atoms: _186  and  _187
REMARK   64  A    between atoms: _188  and  ZN_407
REMARK   65  A    between atoms: _192  and  _194
REMARK   66  A    between atoms: _194  and  _195
REMARK   67  A    between atoms: _194  and  _197
REMARK   68  A    between atoms: _197  and  _198
REMARK   69  A    between atoms: _201  and  _203
REMARK   70  A    between atoms: _203  and  _204
REMARK   71  A    between atoms: _203  and  _206
REMARK   72  A    between atoms: _209  and  _211
REMARK   73  A    between atoms: _211  and  _212
REMARK   74  A    between atoms: _211  and  _214
REMARK   75  A    between atoms: _214  and  _215
REMARK   76  A    between atoms: _220  and  _222
REMARK   77  A    between atoms: _222  and  _223
REMARK   78  A    between atoms: _222  and  _225
REMARK   79  A    between atoms: _225  and  _226
REMARK   80  A    between atoms: _236  and  _238
REMARK   81  A    between atoms: _238  and  _239
REMARK   82  A    between atoms: _238  and  _241
REMARK   83  A    between atoms: _241  and  _242
REMARK   84  A    between atoms: _248  and  _250
REMARK   85  A    between atoms: _250  and  _251
REMARK   86  A    between atoms: _250  and  _253
REMARK   87  A    between atoms: _256  and  _258
REMARK   88  A    between atoms: _258  and  _259
REMARK   89  A    between atoms: _258  and  _261
REMARK   90  A    between atoms: _261  and  _262
REMARK   91  A    between atoms: _265  and  _267
REMARK   92  A    between atoms: _267  and  _268
REMARK   93  A    between atoms: _271  and  _273
REMARK   94  A    between atoms: _273  and  _274
REMARK   95  A    between atoms: _273  and  _276
REMARK   96  A    between atoms: _279  and  _281
REMARK   97  A    between atoms: _281  and  _282
REMARK   98  A    between atoms: _281  and  _284
REMARK   99  A    between atoms: _284  and  _285
REMARK  100  A    between atoms: _288  and  _290
REMARK  101  A    between atoms: _290  and  _291
REMARK  102  A    between atoms: _290  and  _293
REMARK  103  A    between atoms: _293  and  _294
REMARK  104  A    between atoms: _296  and  _298
REMARK  105  A    between atoms: _298  and  _299
REMARK  106  A    between atoms: _298  and  _301
REMARK  107  A    between atoms: _301  and  _302
REMARK  108  A    between atoms: _305  and  _307
REMARK  109  A    between atoms: _307  and  _308
REMARK  110  A    between atoms: _307  and  _310
REMARK  111  A    between atoms: _310  and  _311
REMARK  112  A    between atoms: _314  and  _316
REMARK  113  A    between atoms: _316  and  _317
REMARK  114  A    between atoms: _316  and  _319
REMARK  115  A    between atoms: _319  and  _320
REMARK  116  A    between atoms: _324  and  _325
REMARK  117  A    between atoms: _331  and  _332
REMARK  118  A    between atoms: _337  and  _339
REMARK  119  A    between atoms: _339  and  _340
REMARK  120  A    between atoms: _339  and  _342
REMARK  121  A    between atoms: _342  and  _343
REMARK  122  A    between atoms: _346  and  _348
REMARK  123  A    between atoms: _348  and  _349
REMARK  124  A    between atoms: _348  and  _351
REMARK  125  A    between atoms: _351  and  _352
REMARK  126  A    between atoms: _355  and  _357
REMARK  127  A    between atoms: _357  and  _358
REMARK  128  A    between atoms: _357  and  _360
REMARK  129  A    between atoms: _363  and  _365
REMARK  130  A    between atoms: _365  and  _366
REMARK  131  A    between atoms: _365  and  _368
REMARK  132  A    between atoms: _368  and  _369
REMARK  133  A    between atoms: _379  and  _381
REMARK  134  A    between atoms: _381  and  _382
REMARK  135  A    between atoms: _381  and  _384
REMARK  136  A    between atoms: _384  and  _385
REMARK  137  A    between atoms: _390  and  _392
REMARK  138  A    between atoms: _392  and  _393
REMARK  139  A    between atoms: _392  and  _395
REMARK  140  A    between atoms: _395  and  _396
REMARK  141  A    between atoms: _396  and  _397
REMARK  142  A    between atoms: _397  and  _398
REMARK                            x       y       z     vdW  Elec       q    Type
REMARK                         _______ _______ _______ _____ _____    ______ ____
ROOT
ATOM      1  NE  ARG A   1       2.177  -3.838  21.185  0.00  0.00    -0.265 N 
ATOM      2  CZ  ARG A   1       2.332  -2.817  22.033  0.00  0.00    +0.342 C 
ATOM      3  NH2 ARG A   1       3.532  -2.553  22.540  0.00  0.00    -0.292 N 
ATOM      4 HH21 ARG A   1       3.654  -1.759  23.200  0.00  0.00    +0.255 HD
ATOM      5 HH22 ARG A   1       4.349  -3.141  22.277  0.00  0.00    +0.255 HD
ATOM      6  NH1 ARG A   1       1.297  -2.068  22.395  0.00  0.00    -0.292 N 
ATOM      7 HH11 ARG A   1       1.434  -1.277  23.056  0.00  0.00    +0.255 HD
ATOM      8 HH12 ARG A   1       0.350  -2.273  22.018  0.00  0.00    +0.255 HD
ATOM      9  HE  ARG A   1       3.019  -4.403  20.955  0.00  0.00    +0.259 HD
ENDROOT
BRANCH   1  10
ATOM     10  CD  ARG A   1       0.913  -4.222  20.555  0.00  0.00    +0.174 C 
BRANCH  10  11
ATOM     11  CG  ARG A   1       1.016  -5.595  19.901  0.00  0.00    +0.045 C 
BRANCH  11  12
ATOM     12  CB  ARG A   1      -0.055  -5.790  18.844  0.00  0.00    +0.029 C 
BRANCH  12  13
ATOM     13  CA  ARG A   1      -0.186  -7.242  18.361  0.00  0.00    +0.133 C 
BRANCH  13  14
ATOM     14  N   ARG A   1      -1.138  -7.332  17.267  0.00  0.00    -0.239 NA
ATOM     15  H   ARG A   1      -1.921  -6.649  17.230  0.00  0.00    +0.142 HD
ENDBRANCH  13  14
BRANCH  13  16
ATOM     16  C   ARG A   1      -0.658  -8.144  19.508  0.00  0.00    +0.224 C 
ATOM     17  O   ARG A   1      -1.836  -8.130  19.860  0.00  0.00    -0.287 OA
ENDBRANCH  13  16
ENDBRANCH  12  13
ENDBRANCH  11  12
ENDBRANCH  10  11
ENDBRANCH   1  10
TORSDOF 6
REMARK  Name = ../refined-set-2016/3bl0/3bl0_pocket.pdb
REMARK  142 active torsions:
REMARK  status: ('A' for Active; 'I' for Inactive)
REMARK    1  A    between atoms: _1  and  _3
REMARK    2  A    between atoms: _3  and  _4
REMARK    3  A    between atoms: _3  and  _6
REMARK    4  A    between atoms: _6  and  _7
REMARK    5  A    between atoms: _17  and  _19
REMARK    6  A    between atoms: _19  and  _20
REMARK    7  A    between atoms: _19  and  _22
REMARK    8  A    between atoms: _22  and  _23
REMARK    9  A    between atoms: _28  and  _29
REMARK   10  A    between atoms: _31  and  _33
REMARK   11  A    between atoms: _33  and  _34
REMARK   12  A    between atoms: _33  and  _36
REMARK   13  A    between atoms: _36  and  _37
REMARK   14  A    between atoms: _40  and  _41
REMARK   15  A    between atoms: _46  and  _48
REMARK   16  A    between atoms: _48  and  _49
REMARK   17  A    between atoms: _48  and  _51
REMARK   18  A    between atoms: _51  and  _52
REMARK   19  A    between atoms: _57  and  _59
REMARK   20  A    between atoms: _59  and  _60
REMARK   21  A    between atoms: _63  and  _65
REMARK   22  A    between atoms: _65  and  _66
REMARK   23  A    between atoms: _65  and  _68
REMARK   24  A    between atoms: _68  and  _69
REMARK   25  A    between atoms: _74  and  _76
REMARK   26  A    between atoms: _76  and  _77
REMARK   27  A    between atoms: _76  and  _79
REMARK   28  A    between atoms: _79  and  _80
REMARK   29  A    between atoms: _83  and  _85
REMARK   30  A    between atoms: _85  and  _86
REMARK   31  A    between atoms: _85  and  _88
REMARK   32  A    between atoms: _88  and  _89
REMARK   33  A    between atoms: _89  and  _90
REMARK   34  A    between atoms: _95  and  _97
REMARK   35  A    between atoms: _97  and  _98
REMARK   36  A    between atoms: _97  and  _100
REMARK   37  A    between atoms: _100  and  _101
REMARK   38  A    between atoms: _107  and  _109
REMARK   39  A    between atoms: _120  and  _123
REMARK   40  A    between atoms: _123  and  _124
REMARK   41  A    between atoms: _132  and  _133
REMARK   42  A    between atoms: _141  and  _143
REMARK   43  A    between atoms: _143  and  _144
REMARK   44  A    between atoms: _143  and  _146
REMARK   45  A    between atoms: _146  and  _147
REMARK   46  A    between atoms: _147  and  _148
REMARK   47  A    between atoms: _151  and  _153
REMARK   48  A    between atoms: _153  and  _154
REMARK   49  A    between atoms: _153  and  _156
REMARK   50  A    between atoms: _156  and  _157
REMARK   51  A    between atoms: _162  and  _164
REMARK   52  A    between atoms: _164  and  _165
REMARK   53  A    between atoms: _164  and  _167
REMARK   54  A    between atoms: _167  and  _168
REMARK   55  A    between atoms: _168  and  _169
REMARK   56  A    between atoms: _172  and  _174
REMARK   57  A    between atoms: _174  and  _175
REMARK   58  A    between atoms: _174  and  _177
REMARK   59  A    between atoms: _177  and  _178
REMARK   60  A    between atoms: _181  and  _183
REMARK   61  A    between atoms: _183  and  _184
REMARK   62  A    between atoms: _183  and  _186
REMARK   63  A    between atoms: _186  and  _187
REMARK   64  A    between atoms: _188  and  ZN_407
REMARK   65  A    between atoms: _192  and  _194
REMARK   66  A    between atoms: _194  and  _195
REMARK   67  A    between atoms: _194  and  _197
REMARK   68  A    between atoms: _197  and  _198
REMARK   69  A    between atoms: _201  and  _203
REMARK   70  A    between atoms: _203  and  _204
REMARK   71  A    between atoms: _203  and  _206
REMARK   72  A    between atoms: _209  and  _211
REMARK   73  A    between atoms: _211  and  _212
REMARK   74  A    between atoms: _211  and  _214
REMARK   75  A    between atoms: _214  and  _215
REMARK   76  A    between atoms: _220  and  _222
REMARK   77  A    between atoms: _222  and  _223
REMARK   78  A    between atoms: _222  and  _225
REMARK   79  A    between atoms: _225  and  _226
REMARK   80  A    between atoms: _236  and  _238
REMARK   81  A    between atoms: _238  and  _239
REMARK   82  A    between atoms: _238  and  _241
REMARK   83  A    between atoms: _241  and  _242
REMARK   84  A    between atoms: _248  and  _250
REMARK   85  A    between atoms: _250  and  _251
REMARK   86  A    between atoms: _250  and  _253
REMARK   87  A    between atoms: _256  and  _258
REMARK   88  A    between atoms: _258  and  _259
REMARK   89  A    between atoms: _258  and  _261
REMARK   90  A    between atoms: _261  and  _262
REMARK   91  A    between atoms: _265  and  _267
REMARK   92  A    between atoms: _267  and  _268
REMARK   93  A    between atoms: _271  and  _273
REMARK   94  A    between atoms: _273  and  _274
REMARK   95  A    between atoms: _273  and  _276
REMARK   96  A    between atoms: _279  and  _281
REMARK   97  A    between atoms: _281  and  _282
REMARK   98  A    between atoms: _281  and  _284
REMARK   99  A    between atoms: _284  and  _285
REMARK  100  A    between atoms: _288  and  _290
REMARK  101  A    between atoms: _290  and  _291
REMARK  102  A    between atoms: _290  and  _293
REMARK  103  A    between atoms: _293  and  _294
REMARK  104  A    between atoms: _296  and  _298
REMARK  105  A    between atoms: _298  and  _299
REMARK  106  A    between atoms: _298  and  _301
REMARK  107  A    between atoms: _301  and  _302
REMARK  108  A    between atoms: _305  and  _307
REMARK  109  A    between atoms: _307  and  _308
REMARK  110  A    between atoms: _307  and  _310
REMARK  111  A    between atoms: _310  and  _311
REMARK  112  A    between atoms: _314  and  _316
REMARK  113  A    between atoms: _316  and  _317
REMARK  114  A    between atoms: _316  and  _319
REMARK  115  A    between atoms: _319  and  _320
REMARK  116  A    between atoms: _324  and  _325
REMARK  117  A    between atoms: _331  and  _332
REMARK  118  A    between atoms: _337  and  _339
REMARK  119  A    between atoms: _339  and  _340
REMARK  120  A    between atoms: _339  and  _342
REMARK  121  A    between atoms: _342  and  _343
REMARK  122  A    between atoms: _346  and  _348
REMARK  123  A    between atoms: _348  and  _349
REMARK  124  A    between atoms: _348  and  _351
REMARK  125  A    between atoms: _351  and  _352
REMARK  126  A    between atoms: _355  and  _357
REMARK  127  A    between atoms: _357  and  _358
REMARK  128  A    between atoms: _357  and  _360
REMARK  129  A    between atoms: _363  and  _365
REMARK  130  A    between atoms: _365  and  _366
REMARK  131  A    between atoms: _365  and  _368
REMARK  132  A    between atoms: _368  and  _369
REMARK  133  A    between atoms: _379  and  _381
REMARK  134  A    between atoms: _381  and  _382
REMARK  135  A    between atoms: _381  and  _384
REMARK  136  A    between atoms: _384  and  _385
REMARK  137  A    between atoms: _390  and  _392
REMARK  138  A    between atoms: _392  and  _393
REMARK  139  A    between atoms: _392  and  _395
REMARK  140  A    between atoms: _395  and  _396
REMARK  141  A    between atoms: _396  and  _397
REMARK  142  A    between atoms: _397  and  _398
REMARK                            x       y       z     vdW  Elec       q    Type
REMARK                         _______ _______ _______ _____ _____    ______ ____
ROOT
ATOM      1  O   HOH     1      -1.206  -4.075  15.768  0.00  0.00    +0.000 OA
ENDROOT
TORSDOF 0
REMARK  Name = ../refined-set-2016/3bl0/3bl0_pocket.pdb
REMARK  142 active torsions:
REMARK  status: ('A' for Active; 'I' for Inactive)
REMARK    1  A    between atoms: _1  and  _3
REMARK    2  A    between atoms: _3  and  _4
REMARK    3  A    between atoms: _3  and  _6
REMARK    4  A    between atoms: _6  and  _7
REMARK    5  A    between atoms: _17  and  _19
REMARK    6  A    between atoms: _19  and  _20
REMARK    7  A    between atoms: _19  and  _22
REMARK    8  A    between atoms: _22  and  _23
REMARK    9  A    between atoms: _28  and  _29
REMARK   10  A    between atoms: _31  and  _33
REMARK   11  A    between atoms: _33  and  _34
REMARK   12  A    between atoms: _33  and  _36
REMARK   13  A    between atoms: _36  and  _37
REMARK   14  A    between atoms: _40  and  _41
REMARK   15  A    between atoms: _46  and  _48
REMARK   16  A    between atoms: _48  and  _49
REMARK   17  A    between atoms: _48  and  _51
REMARK   18  A    between atoms: _51  and  _52
REMARK   19  A    between atoms: _57  and  _59
REMARK   20  A    between atoms: _59  and  _60
REMARK   21  A    between atoms: _63  and  _65
REMARK   22  A    between atoms: _65  and  _66
REMARK   23  A    between atoms: _65  and  _68
REMARK   24  A    between atoms: _68  and  _69
REMARK   25  A    between atoms: _74  and  _76
REMARK   26  A    between atoms: _76  and  _77
REMARK   27  A    between atoms: _76  and  _79
REMARK   28  A    between atoms: _79  and  _80
REMARK   29  A    between atoms: _83  and  _85
REMARK   30  A    between atoms: _85  and  _86
REMARK   31  A    between atoms: _85  and  _88
REMARK   32  A    between atoms: _88  and  _89
REMARK   33  A    between atoms: _89  and  _90
REMARK   34  A    between atoms: _95  and  _97
REMARK   35  A    between atoms: _97  and  _98
REMARK   36  A    between atoms: _97  and  _100
REMARK   37  A    between atoms: _100  and  _101
REMARK   38  A    between atoms: _107  and  _109
REMARK   39  A    between atoms: _120  and  _123
REMARK   40  A    between atoms: _123  and  _124
REMARK   41  A    between atoms: _132  and  _133
REMARK   42  A    between atoms: _141  and  _143
REMARK   43  A    between atoms: _143  and  _144
REMARK   44  A    between atoms: _143  and  _146
REMARK   45  A    between atoms: _146  and  _147
REMARK   46  A    between atoms: _147  and  _148
REMARK   47  A    between atoms: _151  and  _153
REMARK   48  A    between atoms: _153  and  _154
REMARK   49  A    between atoms: _153  and  _156
REMARK   50  A    between atoms: _156  and  _157
REMARK   51  A    between atoms: _162  and  _164
REMARK   52  A    between atoms: _164  and  _165
REMARK   53  A    between atoms: _164  and  _167
REMARK   54  A    between atoms: _167  and  _168
REMARK   55  A    between atoms: _168  and  _169
REMARK   56  A    between atoms: _172  and  _174
REMARK   57  A    between atoms: _174  and  _175
REMARK   58  A    between atoms: _174  and  _177
REMARK   59  A    between atoms: _177  and  _178
REMARK   60  A    between atoms: _181  and  _183
REMARK   61  A    between atoms: _183  and  _184
REMARK   62  A    between atoms: _183  and  _186
REMARK   63  A    between atoms: _186  and  _187
REMARK   64  A    between atoms: _188  and  ZN_407
REMARK   65  A    between atoms: _192  and  _194
REMARK   66  A    between atoms: _194  and  _195
REMARK   67  A    between atoms: _194  and  _197
REMARK   68  A    between atoms: _197  and  _198
REMARK   69  A    between atoms: _201  and  _203
REMARK   70  A    between atoms: _203  and  _204
REMARK   71  A    between atoms: _203  and  _206
REMARK   72  A    between atoms: _209  and  _211
REMARK   73  A    between atoms: _211  and  _212
REMARK   74  A    between atoms: _211  and  _214
REMARK   75  A    between atoms: _214  and  _215
REMARK   76  A    between atoms: _220  and  _222
REMARK   77  A    between atoms: _222  and  _223
REMARK   78  A    between atoms: _222  and  _225
REMARK   79  A    between atoms: _225  and  _226
REMARK   80  A    between atoms: _236  and  _238
REMARK   81  A    between atoms: _238  and  _239
REMARK   82  A    between atoms: _238  and  _241
REMARK   83  A    between atoms: _241  and  _242
REMARK   84  A    between atoms: _248  and  _250
REMARK   85  A    between atoms: _250  and  _251
REMARK   86  A    between atoms: _250  and  _253
REMARK   87  A    between atoms: _256  and  _258
REMARK   88  A    between atoms: _258  and  _259
REMARK   89  A    between atoms: _258  and  _261
REMARK   90  A    between atoms: _261  and  _262
REMARK   91  A    between atoms: _265  and  _267
REMARK   92  A    between atoms: _267  and  _268
REMARK   93  A    between atoms: _271  and  _273
REMARK   94  A    between atoms: _273  and  _274
REMARK   95  A    between atoms: _273  and  _276
REMARK   96  A    between atoms: _279  and  _281
REMARK   97  A    between atoms: _281  and  _282
REMARK   98  A    between atoms: _281  and  _284
REMARK   99  A    between atoms: _284  and  _285
REMARK  100  A    between atoms: _288  and  _290
REMARK  101  A    between atoms: _290  and  _291
REMARK  102  A    between atoms: _290  and  _293
REMARK  103  A    between atoms: _293  and  _294
REMARK  104  A    between atoms: _296  and  _298
REMARK  105  A    between atoms: _298  and  _299
REMARK  106  A    between atoms: _298  and  _301
REMARK  107  A    between atoms: _301  and  _302
REMARK  108  A    between atoms: _305  and  _307
REMARK  109  A    between atoms: _307  and  _308
REMARK  110  A    between atoms: _307  and  _310
REMARK  111  A    between atoms: _310  and  _311
REMARK  112  A    between atoms: _314  and  _316
REMARK  113  A    between atoms: _316  and  _317
REMARK  114  A    between atoms: _316  and  _319
REMARK  115  A    between atoms: _319  and  _320
REMARK  116  A    between atoms: _324  and  _325
REMARK  117  A    between atoms: _331  and  _332
REMARK  118  A    between atoms: _337  and  _339
REMARK  119  A    between atoms: _339  and  _340
REMARK  120  A    between atoms: _339  and  _342
REMARK  121  A    between atoms: _342  and  _343
REMARK  122  A    between atoms: _346  and  _348
REMARK  123  A    between atoms: _348  and  _349
REMARK  124  A    between atoms: _348  and  _351
REMARK  125  A    between atoms: _351  and  _352
REMARK  126  A    between atoms: _355  and  _357
REMARK  127  A    between atoms: _357  and  _358
REMARK  128  A    between atoms: _357  and  _360
REMARK  129  A    between atoms: _363  and  _365
REMARK  130  A    between atoms: _365  and  _366
REMARK  131  A    between atoms: _365  and  _368
REMARK  132  A    between atoms: _368  and  _369
REMARK  133  A    between atoms: _379  and  _381
REMARK  134  A    between atoms: _381  and  _382
REMARK  135  A    between atoms: _381  and  _384
REMARK  136  A    between atoms: _384  and  _385
REMARK  137  A    between atoms: _390  and  _392
REMARK  138  A    between atoms: _392  and  _393
REMARK  139  A    between atoms: _392  and  _395
REMARK  140  A    between atoms: _395  and  _396
REMARK  141  A    between atoms: _396  and  _397
REMARK  142  A    between atoms: _397  and  _398
REMARK                            x       y       z     vdW  Elec       q    Type
REMARK                         _______ _______ _______ _____ _____    ______ ____
ROOT
ATOM      1  O   HOH     1      -6.748   5.879   5.940  0.00  0.00    +0.000 OA
ENDROOT
TORSDOF 0
REMARK  Name = ../refined-set-2016/3bl0/3bl0_pocket.pdb
REMARK  142 active torsions:
REMARK  status: ('A' for Active; 'I' for Inactive)
REMARK    1  A    between atoms: _1  and  _3
REMARK    2  A    between atoms: _3  and  _4
REMARK    3  A    between atoms: _3  and  _6
REMARK    4  A    between atoms: _6  and  _7
REMARK    5  A    between atoms: _17  and  _19
REMARK    6  A    between atoms: _19  and  _20
REMARK    7  A    between atoms: _19  and  _22
REMARK    8  A    between atoms: _22  and  _23
REMARK    9  A    between atoms: _28  and  _29
REMARK   10  A    between atoms: _31  and  _33
REMARK   11  A    between atoms: _33  and  _34
REMARK   12  A    between atoms: _33  and  _36
REMARK   13  A    between atoms: _36  and  _37
REMARK   14  A    between atoms: _40  and  _41
REMARK   15  A    between atoms: _46  and  _48
REMARK   16  A    between atoms: _48  and  _49
REMARK   17  A    between atoms: _48  and  _51
REMARK   18  A    between atoms: _51  and  _52
REMARK   19  A    between atoms: _57  and  _59
REMARK   20  A    between atoms: _59  and  _60
REMARK   21  A    between atoms: _63  and  _65
REMARK   22  A    between atoms: _65  and  _66
REMARK   23  A    between atoms: _65  and  _68
REMARK   24  A    between atoms: _68  and  _69
REMARK   25  A    between atoms: _74  and  _76
REMARK   26  A    between atoms: _76  and  _77
REMARK   27  A    between atoms: _76  and  _79
REMARK   28  A    between atoms: _79  and  _80
REMARK   29  A    between atoms: _83  and  _85
REMARK   30  A    between atoms: _85  and  _86
REMARK   31  A    between atoms: _85  and  _88
REMARK   32  A    between atoms: _88  and  _89
REMARK   33  A    between atoms: _89  and  _90
REMARK   34  A    between atoms: _95  and  _97
REMARK   35  A    between atoms: _97  and  _98
REMARK   36  A    between atoms: _97  and  _100
REMARK   37  A    between atoms: _100  and  _101
REMARK   38  A    between atoms: _107  and  _109
REMARK   39  A    between atoms: _120  and  _123
REMARK   40  A    between atoms: _123  and  _124
REMARK   41  A    between atoms: _132  and  _133
REMARK   42  A    between atoms: _141  and  _143
REMARK   43  A    between atoms: _143  and  _144
REMARK   44  A    between atoms: _143  and  _146
REMARK   45  A    between atoms: _146  and  _147
REMARK   46  A    between atoms: _147  and  _148
REMARK   47  A    between atoms: _151  and  _153
REMARK   48  A    between atoms: _153  and  _154
REMARK   49  A    between atoms: _153  and  _156
REMARK   50  A    between atoms: _156  and  _157
REMARK   51  A    between atoms: _162  and  _164
REMARK   52  A    between atoms: _164  and  _165
REMARK   53  A    between atoms: _164  and  _167
REMARK   54  A    between atoms: _167  and  _168
REMARK   55  A    between atoms: _168  and  _169
REMARK   56  A    between atoms: _172  and  _174
REMARK   57  A    between atoms: _174  and  _175
REMARK   58  A    between atoms: _174  and  _177
REMARK   59  A    between atoms: _177  and  _178
REMARK   60  A    between atoms: _181  and  _183
REMARK   61  A    between atoms: _183  and  _184
REMARK   62  A    between atoms: _183  and  _186
REMARK   63  A    between atoms: _186  and  _187
REMARK   64  A    between atoms: _188  and  ZN_407
REMARK   65  A    between atoms: _192  and  _194
REMARK   66  A    between atoms: _194  and  _195
REMARK   67  A    between atoms: _194  and  _197
REMARK   68  A    between atoms: _197  and  _198
REMARK   69  A    between atoms: _201  and  _203
REMARK   70  A    between atoms: _203  and  _204
REMARK   71  A    between atoms: _203  and  _206
REMARK   72  A    between atoms: _209  and  _211
REMARK   73  A    between atoms: _211  and  _212
REMARK   74  A    between atoms: _211  and  _214
REMARK   75  A    between atoms: _214  and  _215
REMARK   76  A    between atoms: _220  and  _222
REMARK   77  A    between atoms: _222  and  _223
REMARK   78  A    between atoms: _222  and  _225
REMARK   79  A    between atoms: _225  and  _226
REMARK   80  A    between atoms: _236  and  _238
REMARK   81  A    between atoms: _238  and  _239
REMARK   82  A    between atoms: _238  and  _241
REMARK   83  A    between atoms: _241  and  _242
REMARK   84  A    between atoms: _248  and  _250
REMARK   85  A    between atoms: _250  and  _251
REMARK   86  A    between atoms: _250  and  _253
REMARK   87  A    between atoms: _256  and  _258
REMARK   88  A    between atoms: _258  and  _259
REMARK   89  A    between atoms: _258  and  _261
REMARK   90  A    between atoms: _261  and  _262
REMARK   91  A    between atoms: _265  and  _267
REMARK   92  A    between atoms: _267  and  _268
REMARK   93  A    between atoms: _271  and  _273
REMARK   94  A    between atoms: _273  and  _274
REMARK   95  A    between atoms: _273  and  _276
REMARK   96  A    between atoms: _279  and  _281
REMARK   97  A    between atoms: _281  and  _282
REMARK   98  A    between atoms: _281  and  _284
REMARK   99  A    between atoms: _284  and  _285
REMARK  100  A    between atoms: _288  and  _290
REMARK  101  A    between atoms: _290  and  _291
REMARK  102  A    between atoms: _290  and  _293
REMARK  103  A    between atoms: _293  and  _294
REMARK  104  A    between atoms: _296  and  _298
REMARK  105  A    between atoms: _298  and  _299
REMARK  106  A    between atoms: _298  and  _301
REMARK  107  A    between atoms: _301  and  _302
REMARK  108  A    between atoms: _305  and  _307
REMARK  109  A    between atoms: _307  and  _308
REMARK  110  A    between atoms: _307  and  _310
REMARK  111  A    between atoms: _310  and  _311
REMARK  112  A    between atoms: _314  and  _316
REMARK  113  A    between atoms: _316  and  _317
REMARK  114  A    between atoms: _316  and  _319
REMARK  115  A    between atoms: _319  and  _320
REMARK  116  A    between atoms: _324  and  _325
REMARK  117  A    between atoms: _331  and  _332
REMARK  118  A    between atoms: _337  and  _339
REMARK  119  A    between atoms: _339  and  _340
REMARK  120  A    between atoms: _339  and  _342
REMARK  121  A    between atoms: _342  and  _343
REMARK  122  A    between atoms: _346  and  _348
REMARK  123  A    between atoms: _348  and  _349
REMARK  124  A    between atoms: _348  and  _351
REMARK  125  A    between atoms: _351  and  _352
REMARK  126  A    between atoms: _355  and  _357
REMARK  127  A    between atoms: _357  and  _358
REMARK  128  A    between atoms: _357  and  _360
REMARK  129  A    between atoms: _363  and  _365
REMARK  130  A    between atoms: _365  and  _366
REMARK  131  A    between atoms: _365  and  _368
REMARK  132  A    between atoms: _368  and  _369
REMARK  133  A    between atoms: _379  and  _381
REMARK  134  A    between atoms: _381  and  _382
REMARK  135  A    between atoms: _381  and  _384
REMARK  136  A    between atoms: _384  and  _385
REMARK  137  A    between atoms: _390  and  _392
REMARK  138  A    between atoms: _392  and  _393
REMARK  139  A    between atoms: _392  and  _395
REMARK  140  A    between atoms: _395  and  _396
REMARK  141  A    between atoms: _396  and  _397
REMARK  142  A    between atoms: _397  and  _398
REMARK                            x       y       z     vdW  Elec       q    Type
REMARK                         _______ _______ _______ _____ _____    ______ ____
ROOT
ATOM      1  O   HOH     1      -2.348  -2.912  11.384  0.00  0.00    +0.000 OA
ENDROOT
TORSDOF 0
REMARK  Name = ../refined-set-2016/3bl0/3bl0_pocket.pdb
REMARK  142 active torsions:
REMARK  status: ('A' for Active; 'I' for Inactive)
REMARK    1  A    between atoms: _1  and  _3
REMARK    2  A    between atoms: _3  and  _4
REMARK    3  A    between atoms: _3  and  _6
REMARK    4  A    between atoms: _6  and  _7
REMARK    5  A    between atoms: _17  and  _19
REMARK    6  A    between atoms: _19  and  _20
REMARK    7  A    between atoms: _19  and  _22
REMARK    8  A    between atoms: _22  and  _23
REMARK    9  A    between atoms: _28  and  _29
REMARK   10  A    between atoms: _31  and  _33
REMARK   11  A    between atoms: _33  and  _34
REMARK   12  A    between atoms: _33  and  _36
REMARK   13  A    between atoms: _36  and  _37
REMARK   14  A    between atoms: _40  and  _41
REMARK   15  A    between atoms: _46  and  _48
REMARK   16  A    between atoms: _48  and  _49
REMARK   17  A    between atoms: _48  and  _51
REMARK   18  A    between atoms: _51  and  _52
REMARK   19  A    between atoms: _57  and  _59
REMARK   20  A    between atoms: _59  and  _60
REMARK   21  A    between atoms: _63  and  _65
REMARK   22  A    between atoms: _65  and  _66
REMARK   23  A    between atoms: _65  and  _68
REMARK   24  A    between atoms: _68  and  _69
REMARK   25  A    between atoms: _74  and  _76
REMARK   26  A    between atoms: _76  and  _77
REMARK   27  A    between atoms: _76  and  _79
REMARK   28  A    between atoms: _79  and  _80
REMARK   29  A    between atoms: _83  and  _85
REMARK   30  A    between atoms: _85  and  _86
REMARK   31  A    between atoms: _85  and  _88
REMARK   32  A    between atoms: _88  and  _89
REMARK   33  A    between atoms: _89  and  _90
REMARK   34  A    between atoms: _95  and  _97
REMARK   35  A    between atoms: _97  and  _98
REMARK   36  A    between atoms: _97  and  _100
REMARK   37  A    between atoms: _100  and  _101
REMARK   38  A    between atoms: _107  and  _109
REMARK   39  A    between atoms: _120  and  _123
REMARK   40  A    between atoms: _123  and  _124
REMARK   41  A    between atoms: _132  and  _133
REMARK   42  A    between atoms: _141  and  _143
REMARK   43  A    between atoms: _143  and  _144
REMARK   44  A    between atoms: _143  and  _146
REMARK   45  A    between atoms: _146  and  _147
REMARK   46  A    between atoms: _147  and  _148
REMARK   47  A    between atoms: _151  and  _153
REMARK   48  A    between atoms: _153  and  _154
REMARK   49  A    between atoms: _153  and  _156
REMARK   50  A    between atoms: _156  and  _157
REMARK   51  A    between atoms: _162  and  _164
REMARK   52  A    between atoms: _164  and  _165
REMARK   53  A    between atoms: _164  and  _167
REMARK   54  A    between atoms: _167  and  _168
REMARK   55  A    between atoms: _168  and  _169
REMARK   56  A    between atoms: _172  and  _174
REMARK   57  A    between atoms: _174  and  _175
REMARK   58  A    between atoms: _174  and  _177
REMARK   59  A    between atoms: _177  and  _178
REMARK   60  A    between atoms: _181  and  _183
REMARK   61  A    between atoms: _183  and  _184
REMARK   62  A    between atoms: _183  and  _186
REMARK   63  A    between atoms: _186  and  _187
REMARK   64  A    between atoms: _188  and  ZN_407
REMARK   65  A    between atoms: _192  and  _194
REMARK   66  A    between atoms: _194  and  _195
REMARK   67  A    between atoms: _194  and  _197
REMARK   68  A    between atoms: _197  and  _198
REMARK   69  A    between atoms: _201  and  _203
REMARK   70  A    between atoms: _203  and  _204
REMARK   71  A    between atoms: _203  and  _206
REMARK   72  A    between atoms: _209  and  _211
REMARK   73  A    between atoms: _211  and  _212
REMARK   74  A    between atoms: _211  and  _214
REMARK   75  A    between atoms: _214  and  _215
REMARK   76  A    between atoms: _220  and  _222
REMARK   77  A    between atoms: _222  and  _223
REMARK   78  A    between atoms: _222  and  _225
REMARK   79  A    between atoms: _225  and  _226
REMARK   80  A    between atoms: _236  and  _238
REMARK   81  A    between atoms: _238  and  _239
REMARK   82  A    between atoms: _238  and  _241
REMARK   83  A    between atoms: _241  and  _242
REMARK   84  A    between atoms: _248  and  _250
REMARK   85  A    between atoms: _250  and  _251
REMARK   86  A    between atoms: _250  and  _253
REMARK   87  A    between atoms: _256  and  _258
REMARK   88  A    between atoms: _258  and  _259
REMARK   89  A    between atoms: _258  and  _261
REMARK   90  A    between atoms: _261  and  _262
REMARK   91  A    between atoms: _265  and  _267
REMARK   92  A    between atoms: _267  and  _268
REMARK   93  A    between atoms: _271  and  _273
REMARK   94  A    between atoms: _273  and  _274
REMARK   95  A    between atoms: _273  and  _276
REMARK   96  A    between atoms: _279  and  _281
REMARK   97  A    between atoms: _281  and  _282
REMARK   98  A    between atoms: _281  and  _284
REMARK   99  A    between atoms: _284  and  _285
REMARK  100  A    between atoms: _288  and  _290
REMARK  101  A    between atoms: _290  and  _291
REMARK  102  A    between atoms: _290  and  _293
REMARK  103  A    between atoms: _293  and  _294
REMARK  104  A    between atoms: _296  and  _298
REMARK  105  A    between atoms: _298  and  _299
REMARK  106  A    between atoms: _298  and  _301
REMARK  107  A    between atoms: _301  and  _302
REMARK  108  A    between atoms: _305  and  _307
REMARK  109  A    between atoms: _307  and  _308
REMARK  110  A    between atoms: _307  and  _310
REMARK  111  A    between atoms: _310  and  _311
REMARK  112  A    between atoms: _314  and  _316
REMARK  113  A    between atoms: _316  and  _317
REMARK  114  A    between atoms: _316  and  _319
REMARK  115  A    between atoms: _319  and  _320
REMARK  116  A    between atoms: _324  and  _325
REMARK  117  A    between atoms: _331  and  _332
REMARK  118  A    between atoms: _337  and  _339
REMARK  119  A    between atoms: _339  and  _340
REMARK  120  A    between atoms: _339  and  _342
REMARK  121  A    between atoms: _342  and  _343
REMARK  122  A    between atoms: _346  and  _348
REMARK  123  A    between atoms: _348  and  _349
REMARK  124  A    between atoms: _348  and  _351
REMARK  125  A    between atoms: _351  and  _352
REMARK  126  A    between atoms: _355  and  _357
REMARK  127  A    between atoms: _357  and  _358
REMARK  128  A    between atoms: _357  and  _360
REMARK  129  A    between atoms: _363  and  _365
REMARK  130  A    between atoms: _365  and  _366
REMARK  131  A    between atoms: _365  and  _368
REMARK  132  A    between atoms: _368  and  _369
REMARK  133  A    between atoms: _379  and  _381
REMARK  134  A    between atoms: _381  and  _382
REMARK  135  A    between atoms: _381  and  _384
REMARK  136  A    between atoms: _384  and  _385
REMARK  137  A    between atoms: _390  and  _392
REMARK  138  A    between atoms: _392  and  _393
REMARK  139  A    between atoms: _392  and  _395
REMARK  140  A    between atoms: _395  and  _396
REMARK  141  A    between atoms: _396  and  _397
REMARK  142  A    between atoms: _397  and  _398
REMARK                            x       y       z     vdW  Elec       q    Type
REMARK                         _______ _______ _______ _____ _____    ______ ____
ROOT
ATOM      1  O   HOH     1      -4.946   1.121  10.491  0.00  0.00    +0.000 OA
ENDROOT
TORSDOF 0
REMARK  Name = ../refined-set-2016/3bl0/3bl0_pocket.pdb
REMARK  142 active torsions:
REMARK  status: ('A' for Active; 'I' for Inactive)
REMARK    1  A    between atoms: _1  and  _3
REMARK    2  A    between atoms: _3  and  _4
REMARK    3  A    between atoms: _3  and  _6
REMARK    4  A    between atoms: _6  and  _7
REMARK    5  A    between atoms: _17  and  _19
REMARK    6  A    between atoms: _19  and  _20
REMARK    7  A    between atoms: _19  and  _22
REMARK    8  A    between atoms: _22  and  _23
REMARK    9  A    between atoms: _28  and  _29
REMARK   10  A    between atoms: _31  and  _33
REMARK   11  A    between atoms: _33  and  _34
REMARK   12  A    between atoms: _33  and  _36
REMARK   13  A    between atoms: _36  and  _37
REMARK   14  A    between atoms: _40  and  _41
REMARK   15  A    between atoms: _46  and  _48
REMARK   16  A    between atoms: _48  and  _49
REMARK   17  A    between atoms: _48  and  _51
REMARK   18  A    between atoms: _51  and  _52
REMARK   19  A    between atoms: _57  and  _59
REMARK   20  A    between atoms: _59  and  _60
REMARK   21  A    between atoms: _63  and  _65
REMARK   22  A    between atoms: _65  and  _66
REMARK   23  A    between atoms: _65  and  _68
REMARK   24  A    between atoms: _68  and  _69
REMARK   25  A    between atoms: _74  and  _76
REMARK   26  A    between atoms: _76  and  _77
REMARK   27  A    between atoms: _76  and  _79
REMARK   28  A    between atoms: _79  and  _80
REMARK   29  A    between atoms: _83  and  _85
REMARK   30  A    between atoms: _85  and  _86
REMARK   31  A    between atoms: _85  and  _88
REMARK   32  A    between atoms: _88  and  _89
REMARK   33  A    between atoms: _89  and  _90
REMARK   34  A    between atoms: _95  and  _97
REMARK   35  A    between atoms: _97  and  _98
REMARK   36  A    between atoms: _97  and  _100
REMARK   37  A    between atoms: _100  and  _101
REMARK   38  A    between atoms: _107  and  _109
REMARK   39  A    between atoms: _120  and  _123
REMARK   40  A    between atoms: _123  and  _124
REMARK   41  A    between atoms: _132  and  _133
REMARK   42  A    between atoms: _141  and  _143
REMARK   43  A    between atoms: _143  and  _144
REMARK   44  A    between atoms: _143  and  _146
REMARK   45  A    between atoms: _146  and  _147
REMARK   46  A    between atoms: _147  and  _148
REMARK   47  A    between atoms: _151  and  _153
REMARK   48  A    between atoms: _153  and  _154
REMARK   49  A    between atoms: _153  and  _156
REMARK   50  A    between atoms: _156  and  _157
REMARK   51  A    between atoms: _162  and  _164
REMARK   52  A    between atoms: _164  and  _165
REMARK   53  A    between atoms: _164  and  _167
REMARK   54  A    between atoms: _167  and  _168
REMARK   55  A    between atoms: _168  and  _169
REMARK   56  A    between atoms: _172  and  _174
REMARK   57  A    between atoms: _174  and  _175
REMARK   58  A    between atoms: _174  and  _177
REMARK   59  A    between atoms: _177  and  _178
REMARK   60  A    between atoms: _181  and  _183
REMARK   61  A    between atoms: _183  and  _184
REMARK   62  A    between atoms: _183  and  _186
REMARK   63  A    between atoms: _186  and  _187
REMARK   64  A    between atoms: _188  and  ZN_407
REMARK   65  A    between atoms: _192  and  _194
REMARK   66  A    between atoms: _194  and  _195
REMARK   67  A    between atoms: _194  and  _197
REMARK   68  A    between atoms: _197  and  _198
REMARK   69  A    between atoms: _201  and  _203
REMARK   70  A    between atoms: _203  and  _204
REMARK   71  A    between atoms: _203  and  _206
REMARK   72  A    between atoms: _209  and  _211
REMARK   73  A    between atoms: _211  and  _212
REMARK   74  A    between atoms: _211  and  _214
REMARK   75  A    between atoms: _214  and  _215
REMARK   76  A    between atoms: _220  and  _222
REMARK   77  A    between atoms: _222  and  _223
REMARK   78  A    between atoms: _222  and  _225
REMARK   79  A    between atoms: _225  and  _226
REMARK   80  A    between atoms: _236  and  _238
REMARK   81  A    between atoms: _238  and  _239
REMARK   82  A    between atoms: _238  and  _241
REMARK   83  A    between atoms: _241  and  _242
REMARK   84  A    between atoms: _248  and  _250
REMARK   85  A    between atoms: _250  and  _251
REMARK   86  A    between atoms: _250  and  _253
REMARK   87  A    between atoms: _256  and  _258
REMARK   88  A    between atoms: _258  and  _259
REMARK   89  A    between atoms: _258  and  _261
REMARK   90  A    between atoms: _261  and  _262
REMARK   91  A    between atoms: _265  and  _267
REMARK   92  A    between atoms: _267  and  _268
REMARK   93  A    between atoms: _271  and  _273
REMARK   94  A    between atoms: _273  and  _274
REMARK   95  A    between atoms: _273  and  _276
REMARK   96  A    between atoms: _279  and  _281
REMARK   97  A    between atoms: _281  and  _282
REMARK   98  A    between atoms: _281  and  _284
REMARK   99  A    between atoms: _284  and  _285
REMARK  100  A    between atoms: _288  and  _290
REMARK  101  A    between atoms: _290  and  _291
REMARK  102  A    between atoms: _290  and  _293
REMARK  103  A    between atoms: _293  and  _294
REMARK  104  A    between atoms: _296  and  _298
REMARK  105  A    between atoms: _298  and  _299
REMARK  106  A    between atoms: _298  and  _301
REMARK  107  A    between atoms: _301  and  _302
REMARK  108  A    between atoms: _305  and  _307
REMARK  109  A    between atoms: _307  and  _308
REMARK  110  A    between atoms: _307  and  _310
REMARK  111  A    between atoms: _310  and  _311
REMARK  112  A    between atoms: _314  and  _316
REMARK  113  A    between atoms: _316  and  _317
REMARK  114  A    between atoms: _316  and  _319
REMARK  115  A    between atoms: _319  and  _320
REMARK  116  A    between atoms: _324  and  _325
REMARK  117  A    between atoms: _331  and  _332
REMARK  118  A    between atoms: _337  and  _339
REMARK  119  A    between atoms: _339  and  _340
REMARK  120  A    between atoms: _339  and  _342
REMARK  121  A    between atoms: _342  and  _343
REMARK  122  A    between atoms: _346  and  _348
REMARK  123  A    between atoms: _348  and  _349
REMARK  124  A    between atoms: _348  and  _351
REMARK  125  A    between atoms: _351  and  _352
REMARK  126  A    between atoms: _355  and  _357
REMARK  127  A    between atoms: _357  and  _358
REMARK  128  A    between atoms: _357  and  _360
REMARK  129  A    between atoms: _363  and  _365
REMARK  130  A    between atoms: _365  and  _366
REMARK  131  A    between atoms: _365  and  _368
REMARK  132  A    between atoms: _368  and  _369
REMARK  133  A    between atoms: _379  and  _381
REMARK  134  A    between atoms: _381  and  _382
REMARK  135  A    between atoms: _381  and  _384
REMARK  136  A    between atoms: _384  and  _385
REMARK  137  A    between atoms: _390  and  _392
REMARK  138  A    between atoms: _392  and  _393
REMARK  139  A    between atoms: _392  and  _395
REMARK  140  A    between atoms: _395  and  _396
REMARK  141  A    between atoms: _396  and  _397
REMARK  142  A    between atoms: _397  and  _398
REMARK                            x       y       z     vdW  Elec       q    Type
REMARK                         _______ _______ _______ _____ _____    ______ ____
ROOT
ATOM      1  O   HOH     1      -2.993  -0.483  10.832  0.00  0.00    +0.000 OA
ENDROOT
TORSDOF 0
REMARK  Name = ../refined-set-2016/3bl0/3bl0_pocket.pdb
REMARK  142 active torsions:
REMARK  status: ('A' for Active; 'I' for Inactive)
REMARK    1  A    between atoms: _1  and  _3
REMARK    2  A    between atoms: _3  and  _4
REMARK    3  A    between atoms: _3  and  _6
REMARK    4  A    between atoms: _6  and  _7
REMARK    5  A    between atoms: _17  and  _19
REMARK    6  A    between atoms: _19  and  _20
REMARK    7  A    between atoms: _19  and  _22
REMARK    8  A    between atoms: _22  and  _23
REMARK    9  A    between atoms: _28  and  _29
REMARK   10  A    between atoms: _31  and  _33
REMARK   11  A    between atoms: _33  and  _34
REMARK   12  A    between atoms: _33  and  _36
REMARK   13  A    between atoms: _36  and  _37
REMARK   14  A    between atoms: _40  and  _41
REMARK   15  A    between atoms: _46  and  _48
REMARK   16  A    between atoms: _48  and  _49
REMARK   17  A    between atoms: _48  and  _51
REMARK   18  A    between atoms: _51  and  _52
REMARK   19  A    between atoms: _57  and  _59
REMARK   20  A    between atoms: _59  and  _60
REMARK   21  A    between atoms: _63  and  _65
REMARK   22  A    between atoms: _65  and  _66
REMARK   23  A    between atoms: _65  and  _68
REMARK   24  A    between atoms: _68  and  _69
REMARK   25  A    between atoms: _74  and  _76
REMARK   26  A    between atoms: _76  and  _77
REMARK   27  A    between atoms: _76  and  _79
REMARK   28  A    between atoms: _79  and  _80
REMARK   29  A    between atoms: _83  and  _85
REMARK   30  A    between atoms: _85  and  _86
REMARK   31  A    between atoms: _85  and  _88
REMARK   32  A    between atoms: _88  and  _89
REMARK   33  A    between atoms: _89  and  _90
REMARK   34  A    between atoms: _95  and  _97
REMARK   35  A    between atoms: _97  and  _98
REMARK   36  A    between atoms: _97  and  _100
REMARK   37  A    between atoms: _100  and  _101
REMARK   38  A    between atoms: _107  and  _109
REMARK   39  A    between atoms: _120  and  _123
REMARK   40  A    between atoms: _123  and  _124
REMARK   41  A    between atoms: _132  and  _133
REMARK   42  A    between atoms: _141  and  _143
REMARK   43  A    between atoms: _143  and  _144
REMARK   44  A    between atoms: _143  and  _146
REMARK   45  A    between atoms: _146  and  _147
REMARK   46  A    between atoms: _147  and  _148
REMARK   47  A    between atoms: _151  and  _153
REMARK   48  A    between atoms: _153  and  _154
REMARK   49  A    between atoms: _153  and  _156
REMARK   50  A    between atoms: _156  and  _157
REMARK   51  A    between atoms: _162  and  _164
REMARK   52  A    between atoms: _164  and  _165
REMARK   53  A    between atoms: _164  and  _167
REMARK   54  A    between atoms: _167  and  _168
REMARK   55  A    between atoms: _168  and  _169
REMARK   56  A    between atoms: _172  and  _174
REMARK   57  A    between atoms: _174  and  _175
REMARK   58  A    between atoms: _174  and  _177
REMARK   59  A    between atoms: _177  and  _178
REMARK   60  A    between atoms: _181  and  _183
REMARK   61  A    between atoms: _183  and  _184
REMARK   62  A    between atoms: _183  and  _186
REMARK   63  A    between atoms: _186  and  _187
REMARK   64  A    between atoms: _188  and  ZN_407
REMARK   65  A    between atoms: _192  and  _194
REMARK   66  A    between atoms: _194  and  _195
REMARK   67  A    between atoms: _194  and  _197
REMARK   68  A    between atoms: _197  and  _198
REMARK   69  A    between atoms: _201  and  _203
REMARK   70  A    between atoms: _203  and  _204
REMARK   71  A    between atoms: _203  and  _206
REMARK   72  A    between atoms: _209  and  _211
REMARK   73  A    between atoms: _211  and  _212
REMARK   74  A    between atoms: _211  and  _214
REMARK   75  A    between atoms: _214  and  _215
REMARK   76  A    between atoms: _220  and  _222
REMARK   77  A    between atoms: _222  and  _223
REMARK   78  A    between atoms: _222  and  _225
REMARK   79  A    between atoms: _225  and  _226
REMARK   80  A    between atoms: _236  and  _238
REMARK   81  A    between atoms: _238  and  _239
REMARK   82  A    between atoms: _238  and  _241
REMARK   83  A    between atoms: _241  and  _242
REMARK   84  A    between atoms: _248  and  _250
REMARK   85  A    between atoms: _250  and  _251
REMARK   86  A    between atoms: _250  and  _253
REMARK   87  A    between atoms: _256  and  _258
REMARK   88  A    between atoms: _258  and  _259
REMARK   89  A    between atoms: _258  and  _261
REMARK   90  A    between atoms: _261  and  _262
REMARK   91  A    between atoms: _265  and  _267
REMARK   92  A    between atoms: _267  and  _268
REMARK   93  A    between atoms: _271  and  _273
REMARK   94  A    between atoms: _273  and  _274
REMARK   95  A    between atoms: _273  and  _276
REMARK   96  A    between atoms: _279  and  _281
REMARK   97  A    between atoms: _281  and  _282
REMARK   98  A    between atoms: _281  and  _284
REMARK   99  A    between atoms: _284  and  _285
REMARK  100  A    between atoms: _288  and  _290
REMARK  101  A    between atoms: _290  and  _291
REMARK  102  A    between atoms: _290  and  _293
REMARK  103  A    between atoms: _293  and  _294
REMARK  104  A    between atoms: _296  and  _298
REMARK  105  A    between atoms: _298  and  _299
REMARK  106  A    between atoms: _298  and  _301
REMARK  107  A    between atoms: _301  and  _302
REMARK  108  A    between atoms: _305  and  _307
REMARK  109  A    between atoms: _307  and  _308
REMARK  110  A    between atoms: _307  and  _310
REMARK  111  A    between atoms: _310  and  _311
REMARK  112  A    between atoms: _314  and  _316
REMARK  113  A    between atoms: _316  and  _317
REMARK  114  A    between atoms: _316  and  _319
REMARK  115  A    between atoms: _319  and  _320
REMARK  116  A    between atoms: _324  and  _325
REMARK  117  A    between atoms: _331  and  _332
REMARK  118  A    between atoms: _337  and  _339
REMARK  119  A    between atoms: _339  and  _340
REMARK  120  A    between atoms: _339  and  _342
REMARK  121  A    between atoms: _342  and  _343
REMARK  122  A    between atoms: _346  and  _348
REMARK  123  A    between atoms: _348  and  _349
REMARK  124  A    between atoms: _348  and  _351
REMARK  125  A    between atoms: _351  and  _352
REMARK  126  A    between atoms: _355  and  _357
REMARK  127  A    between atoms: _357  and  _358
REMARK  128  A    between atoms: _357  and  _360
REMARK  129  A    between atoms: _363  and  _365
REMARK  130  A    between atoms: _365  and  _366
REMARK  131  A    between atoms: _365  and  _368
REMARK  132  A    between atoms: _368  and  _369
REMARK  133  A    between atoms: _379  and  _381
REMARK  134  A    between atoms: _381  and  _382
REMARK  135  A    between atoms: _381  and  _384
REMARK  136  A    between atoms: _384  and  _385
REMARK  137  A    between atoms: _390  and  _392
REMARK  138  A    between atoms: _392  and  _393
REMARK  139  A    between atoms: _392  and  _395
REMARK  140  A    between atoms: _395  and  _396
REMARK  141  A    between atoms: _396  and  _397
REMARK  142  A    between atoms: _397  and  _398
REMARK                            x       y       z     vdW  Elec       q    Type
REMARK                         _______ _______ _______ _____ _____    ______ ____
ROOT
ATOM      1  O   HOH     1      -1.284   1.920  11.450  0.00  0.00    +0.000 OA
ENDROOT
TORSDOF 0
REMARK  Name = ../refined-set-2016/3bl0/3bl0_pocket.pdb
REMARK  142 active torsions:
REMARK  status: ('A' for Active; 'I' for Inactive)
REMARK    1  A    between atoms: _1  and  _3
REMARK    2  A    between atoms: _3  and  _4
REMARK    3  A    between atoms: _3  and  _6
REMARK    4  A    between atoms: _6  and  _7
REMARK    5  A    between atoms: _17  and  _19
REMARK    6  A    between atoms: _19  and  _20
REMARK    7  A    between atoms: _19  and  _22
REMARK    8  A    between atoms: _22  and  _23
REMARK    9  A    between atoms: _28  and  _29
REMARK   10  A    between atoms: _31  and  _33
REMARK   11  A    between atoms: _33  and  _34
REMARK   12  A    between atoms: _33  and  _36
REMARK   13  A    between atoms: _36  and  _37
REMARK   14  A    between atoms: _40  and  _41
REMARK   15  A    between atoms: _46  and  _48
REMARK   16  A    between atoms: _48  and  _49
REMARK   17  A    between atoms: _48  and  _51
REMARK   18  A    between atoms: _51  and  _52
REMARK   19  A    between atoms: _57  and  _59
REMARK   20  A    between atoms: _59  and  _60
REMARK   21  A    between atoms: _63  and  _65
REMARK   22  A    between atoms: _65  and  _66
REMARK   23  A    between atoms: _65  and  _68
REMARK   24  A    between atoms: _68  and  _69
REMARK   25  A    between atoms: _74  and  _76
REMARK   26  A    between atoms: _76  and  _77
REMARK   27  A    between atoms: _76  and  _79
REMARK   28  A    between atoms: _79  and  _80
REMARK   29  A    between atoms: _83  and  _85
REMARK   30  A    between atoms: _85  and  _86
REMARK   31  A    between atoms: _85  and  _88
REMARK   32  A    between atoms: _88  and  _89
REMARK   33  A    between atoms: _89  and  _90
REMARK   34  A    between atoms: _95  and  _97
REMARK   35  A    between atoms: _97  and  _98
REMARK   36  A    between atoms: _97  and  _100
REMARK   37  A    between atoms: _100  and  _101
REMARK   38  A    between atoms: _107  and  _109
REMARK   39  A    between atoms: _120  and  _123
REMARK   40  A    between atoms: _123  and  _124
REMARK   41  A    between atoms: _132  and  _133
REMARK   42  A    between atoms: _141  and  _143
REMARK   43  A    between atoms: _143  and  _144
REMARK   44  A    between atoms: _143  and  _146
REMARK   45  A    between atoms: _146  and  _147
REMARK   46  A    between atoms: _147  and  _148
REMARK   47  A    between atoms: _151  and  _153
REMARK   48  A    between atoms: _153  and  _154
REMARK   49  A    between atoms: _153  and  _156
REMARK   50  A    between atoms: _156  and  _157
REMARK   51  A    between atoms: _162  and  _164
REMARK   52  A    between atoms: _164  and  _165
REMARK   53  A    between atoms: _164  and  _167
REMARK   54  A    between atoms: _167  and  _168
REMARK   55  A    between atoms: _168  and  _169
REMARK   56  A    between atoms: _172  and  _174
REMARK   57  A    between atoms: _174  and  _175
REMARK   58  A    between atoms: _174  and  _177
REMARK   59  A    between atoms: _177  and  _178
REMARK   60  A    between atoms: _181  and  _183
REMARK   61  A    between atoms: _183  and  _184
REMARK   62  A    between atoms: _183  and  _186
REMARK   63  A    between atoms: _186  and  _187
REMARK   64  A    between atoms: _188  and  ZN_407
REMARK   65  A    between atoms: _192  and  _194
REMARK   66  A    between atoms: _194  and  _195
REMARK   67  A    between atoms: _194  and  _197
REMARK   68  A    between atoms: _197  and  _198
REMARK   69  A    between atoms: _201  and  _203
REMARK   70  A    between atoms: _203  and  _204
REMARK   71  A    between atoms: _203  and  _206
REMARK   72  A    between atoms: _209  and  _211
REMARK   73  A    between atoms: _211  and  _212
REMARK   74  A    between atoms: _211  and  _214
REMARK   75  A    between atoms: _214  and  _215
REMARK   76  A    between atoms: _220  and  _222
REMARK   77  A    between atoms: _222  and  _223
REMARK   78  A    between atoms: _222  and  _225
REMARK   79  A    between atoms: _225  and  _226
REMARK   80  A    between atoms: _236  and  _238
REMARK   81  A    between atoms: _238  and  _239
REMARK   82  A    between atoms: _238  and  _241
REMARK   83  A    between atoms: _241  and  _242
REMARK   84  A    between atoms: _248  and  _250
REMARK   85  A    between atoms: _250  and  _251
REMARK   86  A    between atoms: _250  and  _253
REMARK   87  A    between atoms: _256  and  _258
REMARK   88  A    between atoms: _258  and  _259
REMARK   89  A    between atoms: _258  and  _261
REMARK   90  A    between atoms: _261  and  _262
REMARK   91  A    between atoms: _265  and  _267
REMARK   92  A    between atoms: _267  and  _268
REMARK   93  A    between atoms: _271  and  _273
REMARK   94  A    between atoms: _273  and  _274
REMARK   95  A    between atoms: _273  and  _276
REMARK   96  A    between atoms: _279  and  _281
REMARK   97  A    between atoms: _281  and  _282
REMARK   98  A    between atoms: _281  and  _284
REMARK   99  A    between atoms: _284  and  _285
REMARK  100  A    between atoms: _288  and  _290
REMARK  101  A    between atoms: _290  and  _291
REMARK  102  A    between atoms: _290  and  _293
REMARK  103  A    between atoms: _293  and  _294
REMARK  104  A    between atoms: _296  and  _298
REMARK  105  A    between atoms: _298  and  _299
REMARK  106  A    between atoms: _298  and  _301
REMARK  107  A    between atoms: _301  and  _302
REMARK  108  A    between atoms: _305  and  _307
REMARK  109  A    between atoms: _307  and  _308
REMARK  110  A    between atoms: _307  and  _310
REMARK  111  A    between atoms: _310  and  _311
REMARK  112  A    between atoms: _314  and  _316
REMARK  113  A    between atoms: _316  and  _317
REMARK  114  A    between atoms: _316  and  _319
REMARK  115  A    between atoms: _319  and  _320
REMARK  116  A    between atoms: _324  and  _325
REMARK  117  A    between atoms: _331  and  _332
REMARK  118  A    between atoms: _337  and  _339
REMARK  119  A    between atoms: _339  and  _340
REMARK  120  A    between atoms: _339  and  _342
REMARK  121  A    between atoms: _342  and  _343
REMARK  122  A    between atoms: _346  and  _348
REMARK  123  A    between atoms: _348  and  _349
REMARK  124  A    between atoms: _348  and  _351
REMARK  125  A    between atoms: _351  and  _352
REMARK  126  A    between atoms: _355  and  _357
REMARK  127  A    between atoms: _357  and  _358
REMARK  128  A    between atoms: _357  and  _360
REMARK  129  A    between atoms: _363  and  _365
REMARK  130  A    between atoms: _365  and  _366
REMARK  131  A    between atoms: _365  and  _368
REMARK  132  A    between atoms: _368  and  _369
REMARK  133  A    between atoms: _379  and  _381
REMARK  134  A    between atoms: _381  and  _382
REMARK  135  A    between atoms: _381  and  _384
REMARK  136  A    between atoms: _384  and  _385
REMARK  137  A    between atoms: _390  and  _392
REMARK  138  A    between atoms: _392  and  _393
REMARK  139  A    between atoms: _392  and  _395
REMARK  140  A    between atoms: _395  and  _396
REMARK  141  A    between atoms: _396  and  _397
REMARK  142  A    between atoms: _397  and  _398
REMARK                            x       y       z     vdW  Elec       q    Type
REMARK                         _______ _______ _______ _____ _____    ______ ____
ROOT
ATOM      1  O   HOH     1      -4.335  -4.867  11.399  0.00  0.00    +0.000 OA
ENDROOT
TORSDOF 0
REMARK  Name = ../refined-set-2016/3bl0/3bl0_pocket.pdb
REMARK  142 active torsions:
REMARK  status: ('A' for Active; 'I' for Inactive)
REMARK    1  A    between atoms: _1  and  _3
REMARK    2  A    between atoms: _3  and  _4
REMARK    3  A    between atoms: _3  and  _6
REMARK    4  A    between atoms: _6  and  _7
REMARK    5  A    between atoms: _17  and  _19
REMARK    6  A    between atoms: _19  and  _20
REMARK    7  A    between atoms: _19  and  _22
REMARK    8  A    between atoms: _22  and  _23
REMARK    9  A    between atoms: _28  and  _29
REMARK   10  A    between atoms: _31  and  _33
REMARK   11  A    between atoms: _33  and  _34
REMARK   12  A    between atoms: _33  and  _36
REMARK   13  A    between atoms: _36  and  _37
REMARK   14  A    between atoms: _40  and  _41
REMARK   15  A    between atoms: _46  and  _48
REMARK   16  A    between atoms: _48  and  _49
REMARK   17  A    between atoms: _48  and  _51
REMARK   18  A    between atoms: _51  and  _52
REMARK   19  A    between atoms: _57  and  _59
REMARK   20  A    between atoms: _59  and  _60
REMARK   21  A    between atoms: _63  and  _65
REMARK   22  A    between atoms: _65  and  _66
REMARK   23  A    between atoms: _65  and  _68
REMARK   24  A    between atoms: _68  and  _69
REMARK   25  A    between atoms: _74  and  _76
REMARK   26  A    between atoms: _76  and  _77
REMARK   27  A    between atoms: _76  and  _79
REMARK   28  A    between atoms: _79  and  _80
REMARK   29  A    between atoms: _83  and  _85
REMARK   30  A    between atoms: _85  and  _86
REMARK   31  A    between atoms: _85  and  _88
REMARK   32  A    between atoms: _88  and  _89
REMARK   33  A    between atoms: _89  and  _90
REMARK   34  A    between atoms: _95  and  _97
REMARK   35  A    between atoms: _97  and  _98
REMARK   36  A    between atoms: _97  and  _100
REMARK   37  A    between atoms: _100  and  _101
REMARK   38  A    between atoms: _107  and  _109
REMARK   39  A    between atoms: _120  and  _123
REMARK   40  A    between atoms: _123  and  _124
REMARK   41  A    between atoms: _132  and  _133
REMARK   42  A    between atoms: _141  and  _143
REMARK   43  A    between atoms: _143  and  _144
REMARK   44  A    between atoms: _143  and  _146
REMARK   45  A    between atoms: _146  and  _147
REMARK   46  A    between atoms: _147  and  _148
REMARK   47  A    between atoms: _151  and  _153
REMARK   48  A    between atoms: _153  and  _154
REMARK   49  A    between atoms: _153  and  _156
REMARK   50  A    between atoms: _156  and  _157
REMARK   51  A    between atoms: _162  and  _164
REMARK   52  A    between atoms: _164  and  _165
REMARK   53  A    between atoms: _164  and  _167
REMARK   54  A    between atoms: _167  and  _168
REMARK   55  A    between atoms: _168  and  _169
REMARK   56  A    between atoms: _172  and  _174
REMARK   57  A    between atoms: _174  and  _175
REMARK   58  A    between atoms: _174  and  _177
REMARK   59  A    between atoms: _177  and  _178
REMARK   60  A    between atoms: _181  and  _183
REMARK   61  A    between atoms: _183  and  _184
REMARK   62  A    between atoms: _183  and  _186
REMARK   63  A    between atoms: _186  and  _187
REMARK   64  A    between atoms: _188  and  ZN_407
REMARK   65  A    between atoms: _192  and  _194
REMARK   66  A    between atoms: _194  and  _195
REMARK   67  A    between atoms: _194  and  _197
REMARK   68  A    between atoms: _197  and  _198
REMARK   69  A    between atoms: _201  and  _203
REMARK   70  A    between atoms: _203  and  _204
REMARK   71  A    between atoms: _203  and  _206
REMARK   72  A    between atoms: _209  and  _211
REMARK   73  A    between atoms: _211  and  _212
REMARK   74  A    between atoms: _211  and  _214
REMARK   75  A    between atoms: _214  and  _215
REMARK   76  A    between atoms: _220  and  _222
REMARK   77  A    between atoms: _222  and  _223
REMARK   78  A    between atoms: _222  and  _225
REMARK   79  A    between atoms: _225  and  _226
REMARK   80  A    between atoms: _236  and  _238
REMARK   81  A    between atoms: _238  and  _239
REMARK   82  A    between atoms: _238  and  _241
REMARK   83  A    between atoms: _241  and  _242
REMARK   84  A    between atoms: _248  and  _250
REMARK   85  A    between atoms: _250  and  _251
REMARK   86  A    between atoms: _250  and  _253
REMARK   87  A    between atoms: _256  and  _258
REMARK   88  A    between atoms: _258  and  _259
REMARK   89  A    between atoms: _258  and  _261
REMARK   90  A    between atoms: _261  and  _262
REMARK   91  A    between atoms: _265  and  _267
REMARK   92  A    between atoms: _267  and  _268
REMARK   93  A    between atoms: _271  and  _273
REMARK   94  A    between atoms: _273  and  _274
REMARK   95  A    between atoms: _273  and  _276
REMARK   96  A    between atoms: _279  and  _281
REMARK   97  A    between atoms: _281  and  _282
REMARK   98  A    between atoms: _281  and  _284
REMARK   99  A    between atoms: _284  and  _285
REMARK  100  A    between atoms: _288  and  _290
REMARK  101  A    between atoms: _290  and  _291
REMARK  102  A    between atoms: _290  and  _293
REMARK  103  A    between atoms: _293  and  _294
REMARK  104  A    between atoms: _296  and  _298
REMARK  105  A    between atoms: _298  and  _299
REMARK  106  A    between atoms: _298  and  _301
REMARK  107  A    between atoms: _301  and  _302
REMARK  108  A    between atoms: _305  and  _307
REMARK  109  A    between atoms: _307  and  _308
REMARK  110  A    between atoms: _307  and  _310
REMARK  111  A    between atoms: _310  and  _311
REMARK  112  A    between atoms: _314  and  _316
REMARK  113  A    between atoms: _316  and  _317
REMARK  114  A    between atoms: _316  and  _319
REMARK  115  A    between atoms: _319  and  _320
REMARK  116  A    between atoms: _324  and  _325
REMARK  117  A    between atoms: _331  and  _332
REMARK  118  A    between atoms: _337  and  _339
REMARK  119  A    between atoms: _339  and  _340
REMARK  120  A    between atoms: _339  and  _342
REMARK  121  A    between atoms: _342  and  _343
REMARK  122  A    between atoms: _346  and  _348
REMARK  123  A    between atoms: _348  and  _349
REMARK  124  A    between atoms: _348  and  _351
REMARK  125  A    between atoms: _351  and  _352
REMARK  126  A    between atoms: _355  and  _357
REMARK  127  A    between atoms: _357  and  _358
REMARK  128  A    between atoms: _357  and  _360
REMARK  129  A    between atoms: _363  and  _365
REMARK  130  A    between atoms: _365  and  _366
REMARK  131  A    between atoms: _365  and  _368
REMARK  132  A    between atoms: _368  and  _369
REMARK  133  A    between atoms: _379  and  _381
REMARK  134  A    between atoms: _381  and  _382
REMARK  135  A    between atoms: _381  and  _384
REMARK  136  A    between atoms: _384  and  _385
REMARK  137  A    between atoms: _390  and  _392
REMARK  138  A    between atoms: _392  and  _393
REMARK  139  A    between atoms: _392  and  _395
REMARK  140  A    between atoms: _395  and  _396
REMARK  141  A    between atoms: _396  and  _397
REMARK  142  A    between atoms: _397  and  _398
REMARK                            x       y       z     vdW  Elec       q    Type
REMARK                         _______ _______ _______ _____ _____    ______ ____
ROOT
ATOM      1  O   HOH     1      -2.444   4.281   7.718  0.00  0.00    +0.000 OA
ENDROOT
TORSDOF 0
REMARK  Name = ../refined-set-2016/3bl0/3bl0_pocket.pdb
REMARK  142 active torsions:
REMARK  status: ('A' for Active; 'I' for Inactive)
REMARK    1  A    between atoms: _1  and  _3
REMARK    2  A    between atoms: _3  and  _4
REMARK    3  A    between atoms: _3  and  _6
REMARK    4  A    between atoms: _6  and  _7
REMARK    5  A    between atoms: _17  and  _19
REMARK    6  A    between atoms: _19  and  _20
REMARK    7  A    between atoms: _19  and  _22
REMARK    8  A    between atoms: _22  and  _23
REMARK    9  A    between atoms: _28  and  _29
REMARK   10  A    between atoms: _31  and  _33
REMARK   11  A    between atoms: _33  and  _34
REMARK   12  A    between atoms: _33  and  _36
REMARK   13  A    between atoms: _36  and  _37
REMARK   14  A    between atoms: _40  and  _41
REMARK   15  A    between atoms: _46  and  _48
REMARK   16  A    between atoms: _48  and  _49
REMARK   17  A    between atoms: _48  and  _51
REMARK   18  A    between atoms: _51  and  _52
REMARK   19  A    between atoms: _57  and  _59
REMARK   20  A    between atoms: _59  and  _60
REMARK   21  A    between atoms: _63  and  _65
REMARK   22  A    between atoms: _65  and  _66
REMARK   23  A    between atoms: _65  and  _68
REMARK   24  A    between atoms: _68  and  _69
REMARK   25  A    between atoms: _74  and  _76
REMARK   26  A    between atoms: _76  and  _77
REMARK   27  A    between atoms: _76  and  _79
REMARK   28  A    between atoms: _79  and  _80
REMARK   29  A    between atoms: _83  and  _85
REMARK   30  A    between atoms: _85  and  _86
REMARK   31  A    between atoms: _85  and  _88
REMARK   32  A    between atoms: _88  and  _89
REMARK   33  A    between atoms: _89  and  _90
REMARK   34  A    between atoms: _95  and  _97
REMARK   35  A    between atoms: _97  and  _98
REMARK   36  A    between atoms: _97  and  _100
REMARK   37  A    between atoms: _100  and  _101
REMARK   38  A    between atoms: _107  and  _109
REMARK   39  A    between atoms: _120  and  _123
REMARK   40  A    between atoms: _123  and  _124
REMARK   41  A    between atoms: _132  and  _133
REMARK   42  A    between atoms: _141  and  _143
REMARK   43  A    between atoms: _143  and  _144
REMARK   44  A    between atoms: _143  and  _146
REMARK   45  A    between atoms: _146  and  _147
REMARK   46  A    between atoms: _147  and  _148
REMARK   47  A    between atoms: _151  and  _153
REMARK   48  A    between atoms: _153  and  _154
REMARK   49  A    between atoms: _153  and  _156
REMARK   50  A    between atoms: _156  and  _157
REMARK   51  A    between atoms: _162  and  _164
REMARK   52  A    between atoms: _164  and  _165
REMARK   53  A    between atoms: _164  and  _167
REMARK   54  A    between atoms: _167  and  _168
REMARK   55  A    between atoms: _168  and  _169
REMARK   56  A    between atoms: _172  and  _174
REMARK   57  A    between atoms: _174  and  _175
REMARK   58  A    between atoms: _174  and  _177
REMARK   59  A    between atoms: _177  and  _178
REMARK   60  A    between atoms: _181  and  _183
REMARK   61  A    between atoms: _183  and  _184
REMARK   62  A    between atoms: _183  and  _186
REMARK   63  A    between atoms: _186  and  _187
REMARK   64  A    between atoms: _188  and  ZN_407
REMARK   65  A    between atoms: _192  and  _194
REMARK   66  A    between atoms: _194  and  _195
REMARK   67  A    between atoms: _194  and  _197
REMARK   68  A    between atoms: _197  and  _198
REMARK   69  A    between atoms: _201  and  _203
REMARK   70  A    between atoms: _203  and  _204
REMARK   71  A    between atoms: _203  and  _206
REMARK   72  A    between atoms: _209  and  _211
REMARK   73  A    between atoms: _211  and  _212
REMARK   74  A    between atoms: _211  and  _214
REMARK   75  A    between atoms: _214  and  _215
REMARK   76  A    between atoms: _220  and  _222
REMARK   77  A    between atoms: _222  and  _223
REMARK   78  A    between atoms: _222  and  _225
REMARK   79  A    between atoms: _225  and  _226
REMARK   80  A    between atoms: _236  and  _238
REMARK   81  A    between atoms: _238  and  _239
REMARK   82  A    between atoms: _238  and  _241
REMARK   83  A    between atoms: _241  and  _242
REMARK   84  A    between atoms: _248  and  _250
REMARK   85  A    between atoms: _250  and  _251
REMARK   86  A    between atoms: _250  and  _253
REMARK   87  A    between atoms: _256  and  _258
REMARK   88  A    between atoms: _258  and  _259
REMARK   89  A    between atoms: _258  and  _261
REMARK   90  A    between atoms: _261  and  _262
REMARK   91  A    between atoms: _265  and  _267
REMARK   92  A    between atoms: _267  and  _268
REMARK   93  A    between atoms: _271  and  _273
REMARK   94  A    between atoms: _273  and  _274
REMARK   95  A    between atoms: _273  and  _276
REMARK   96  A    between atoms: _279  and  _281
REMARK   97  A    between atoms: _281  and  _282
REMARK   98  A    between atoms: _281  and  _284
REMARK   99  A    between atoms: _284  and  _285
REMARK  100  A    between atoms: _288  and  _290
REMARK  101  A    between atoms: _290  and  _291
REMARK  102  A    between atoms: _290  and  _293
REMARK  103  A    between atoms: _293  and  _294
REMARK  104  A    between atoms: _296  and  _298
REMARK  105  A    between atoms: _298  and  _299
REMARK  106  A    between atoms: _298  and  _301
REMARK  107  A    between atoms: _301  and  _302
REMARK  108  A    between atoms: _305  and  _307
REMARK  109  A    between atoms: _307  and  _308
REMARK  110  A    between atoms: _307  and  _310
REMARK  111  A    between atoms: _310  and  _311
REMARK  112  A    between atoms: _314  and  _316
REMARK  113  A    between atoms: _316  and  _317
REMARK  114  A    between atoms: _316  and  _319
REMARK  115  A    between atoms: _319  and  _320
REMARK  116  A    between atoms: _324  and  _325
REMARK  117  A    between atoms: _331  and  _332
REMARK  118  A    between atoms: _337  and  _339
REMARK  119  A    between atoms: _339  and  _340
REMARK  120  A    between atoms: _339  and  _342
REMARK  121  A    between atoms: _342  and  _343
REMARK  122  A    between atoms: _346  and  _348
REMARK  123  A    between atoms: _348  and  _349
REMARK  124  A    between atoms: _348  and  _351
REMARK  125  A    between atoms: _351  and  _352
REMARK  126  A    between atoms: _355  and  _357
REMARK  127  A    between atoms: _357  and  _358
REMARK  128  A    between atoms: _357  and  _360
REMARK  129  A    between atoms: _363  and  _365
REMARK  130  A    between atoms: _365  and  _366
REMARK  131  A    between atoms: _365  and  _368
REMARK  132  A    between atoms: _368  and  _369
REMARK  133  A    between atoms: _379  and  _381
REMARK  134  A    between atoms: _381  and  _382
REMARK  135  A    between atoms: _381  and  _384
REMARK  136  A    between atoms: _384  and  _385
REMARK  137  A    between atoms: _390  and  _392
REMARK  138  A    between atoms: _392  and  _393
REMARK  139  A    between atoms: _392  and  _395
REMARK  140  A    between atoms: _395  and  _396
REMARK  141  A    between atoms: _396  and  _397
REMARK  142  A    between atoms: _397  and  _398
REMARK                            x       y       z     vdW  Elec       q    Type
REMARK                         _______ _______ _______ _____ _____    ______ ____
ROOT
ATOM      1  O   HOH     1      -8.312   7.853   8.169  0.00  0.00    +0.000 OA
ENDROOT
TORSDOF 0
REMARK  Name = ../refined-set-2016/3bl0/3bl0_pocket.pdb
REMARK  142 active torsions:
REMARK  status: ('A' for Active; 'I' for Inactive)
REMARK    1  A    between atoms: _1  and  _3
REMARK    2  A    between atoms: _3  and  _4
REMARK    3  A    between atoms: _3  and  _6
REMARK    4  A    between atoms: _6  and  _7
REMARK    5  A    between atoms: _17  and  _19
REMARK    6  A    between atoms: _19  and  _20
REMARK    7  A    between atoms: _19  and  _22
REMARK    8  A    between atoms: _22  and  _23
REMARK    9  A    between atoms: _28  and  _29
REMARK   10  A    between atoms: _31  and  _33
REMARK   11  A    between atoms: _33  and  _34
REMARK   12  A    between atoms: _33  and  _36
REMARK   13  A    between atoms: _36  and  _37
REMARK   14  A    between atoms: _40  and  _41
REMARK   15  A    between atoms: _46  and  _48
REMARK   16  A    between atoms: _48  and  _49
REMARK   17  A    between atoms: _48  and  _51
REMARK   18  A    between atoms: _51  and  _52
REMARK   19  A    between atoms: _57  and  _59
REMARK   20  A    between atoms: _59  and  _60
REMARK   21  A    between atoms: _63  and  _65
REMARK   22  A    between atoms: _65  and  _66
REMARK   23  A    between atoms: _65  and  _68
REMARK   24  A    between atoms: _68  and  _69
REMARK   25  A    between atoms: _74  and  _76
REMARK   26  A    between atoms: _76  and  _77
REMARK   27  A    between atoms: _76  and  _79
REMARK   28  A    between atoms: _79  and  _80
REMARK   29  A    between atoms: _83  and  _85
REMARK   30  A    between atoms: _85  and  _86
REMARK   31  A    between atoms: _85  and  _88
REMARK   32  A    between atoms: _88  and  _89
REMARK   33  A    between atoms: _89  and  _90
REMARK   34  A    between atoms: _95  and  _97
REMARK   35  A    between atoms: _97  and  _98
REMARK   36  A    between atoms: _97  and  _100
REMARK   37  A    between atoms: _100  and  _101
REMARK   38  A    between atoms: _107  and  _109
REMARK   39  A    between atoms: _120  and  _123
REMARK   40  A    between atoms: _123  and  _124
REMARK   41  A    between atoms: _132  and  _133
REMARK   42  A    between atoms: _141  and  _143
REMARK   43  A    between atoms: _143  and  _144
REMARK   44  A    between atoms: _143  and  _146
REMARK   45  A    between atoms: _146  and  _147
REMARK   46  A    between atoms: _147  and  _148
REMARK   47  A    between atoms: _151  and  _153
REMARK   48  A    between atoms: _153  and  _154
REMARK   49  A    between atoms: _153  and  _156
REMARK   50  A    between atoms: _156  and  _157
REMARK   51  A    between atoms: _162  and  _164
REMARK   52  A    between atoms: _164  and  _165
REMARK   53  A    between atoms: _164  and  _167
REMARK   54  A    between atoms: _167  and  _168
REMARK   55  A    between atoms: _168  and  _169
REMARK   56  A    between atoms: _172  and  _174
REMARK   57  A    between atoms: _174  and  _175
REMARK   58  A    between atoms: _174  and  _177
REMARK   59  A    between atoms: _177  and  _178
REMARK   60  A    between atoms: _181  and  _183
REMARK   61  A    between atoms: _183  and  _184
REMARK   62  A    between atoms: _183  and  _186
REMARK   63  A    between atoms: _186  and  _187
REMARK   64  A    between atoms: _188  and  ZN_407
REMARK   65  A    between atoms: _192  and  _194
REMARK   66  A    between atoms: _194  and  _195
REMARK   67  A    between atoms: _194  and  _197
REMARK   68  A    between atoms: _197  and  _198
REMARK   69  A    between atoms: _201  and  _203
REMARK   70  A    between atoms: _203  and  _204
REMARK   71  A    between atoms: _203  and  _206
REMARK   72  A    between atoms: _209  and  _211
REMARK   73  A    between atoms: _211  and  _212
REMARK   74  A    between atoms: _211  and  _214
REMARK   75  A    between atoms: _214  and  _215
REMARK   76  A    between atoms: _220  and  _222
REMARK   77  A    between atoms: _222  and  _223
REMARK   78  A    between atoms: _222  and  _225
REMARK   79  A    between atoms: _225  and  _226
REMARK   80  A    between atoms: _236  and  _238
REMARK   81  A    between atoms: _238  and  _239
REMARK   82  A    between atoms: _238  and  _241
REMARK   83  A    between atoms: _241  and  _242
REMARK   84  A    between atoms: _248  and  _250
REMARK   85  A    between atoms: _250  and  _251
REMARK   86  A    between atoms: _250  and  _253
REMARK   87  A    between atoms: _256  and  _258
REMARK   88  A    between atoms: _258  and  _259
REMARK   89  A    between atoms: _258  and  _261
REMARK   90  A    between atoms: _261  and  _262
REMARK   91  A    between atoms: _265  and  _267
REMARK   92  A    between atoms: _267  and  _268
REMARK   93  A    between atoms: _271  and  _273
REMARK   94  A    between atoms: _273  and  _274
REMARK   95  A    between atoms: _273  and  _276
REMARK   96  A    between atoms: _279  and  _281
REMARK   97  A    between atoms: _281  and  _282
REMARK   98  A    between atoms: _281  and  _284
REMARK   99  A    between atoms: _284  and  _285
REMARK  100  A    between atoms: _288  and  _290
REMARK  101  A    between atoms: _290  and  _291
REMARK  102  A    between atoms: _290  and  _293
REMARK  103  A    between atoms: _293  and  _294
REMARK  104  A    between atoms: _296  and  _298
REMARK  105  A    between atoms: _298  and  _299
REMARK  106  A    between atoms: _298  and  _301
REMARK  107  A    between atoms: _301  and  _302
REMARK  108  A    between atoms: _305  and  _307
REMARK  109  A    between atoms: _307  and  _308
REMARK  110  A    between atoms: _307  and  _310
REMARK  111  A    between atoms: _310  and  _311
REMARK  112  A    between atoms: _314  and  _316
REMARK  113  A    between atoms: _316  and  _317
REMARK  114  A    between atoms: _316  and  _319
REMARK  115  A    between atoms: _319  and  _320
REMARK  116  A    between atoms: _324  and  _325
REMARK  117  A    between atoms: _331  and  _332
REMARK  118  A    between atoms: _337  and  _339
REMARK  119  A    between atoms: _339  and  _340
REMARK  120  A    between atoms: _339  and  _342
REMARK  121  A    between atoms: _342  and  _343
REMARK  122  A    between atoms: _346  and  _348
REMARK  123  A    between atoms: _348  and  _349
REMARK  124  A    between atoms: _348  and  _351
REMARK  125  A    between atoms: _351  and  _352
REMARK  126  A    between atoms: _355  and  _357
REMARK  127  A    between atoms: _357  and  _358
REMARK  128  A    between atoms: _357  and  _360
REMARK  129  A    between atoms: _363  and  _365
REMARK  130  A    between atoms: _365  and  _366
REMARK  131  A    between atoms: _365  and  _368
REMARK  132  A    between atoms: _368  and  _369
REMARK  133  A    between atoms: _379  and  _381
REMARK  134  A    between atoms: _381  and  _382
REMARK  135  A    between atoms: _381  and  _384
REMARK  136  A    between atoms: _384  and  _385
REMARK  137  A    between atoms: _390  and  _392
REMARK  138  A    between atoms: _392  and  _393
REMARK  139  A    between atoms: _392  and  _395
REMARK  140  A    between atoms: _395  and  _396
REMARK  141  A    between atoms: _396  and  _397
REMARK  142  A    between atoms: _397  and  _398
REMARK                            x       y       z     vdW  Elec       q    Type
REMARK                         _______ _______ _______ _____ _____    ______ ____
ROOT
ATOM      1  O   HOH     1      -3.368   3.494  10.220  0.00  0.00    +0.000 OA
ENDROOT
TORSDOF 0
