REMARK  Name = ../refined-set-2016/4ouj/4ouj_pocket.pdb
REMARK  82 active torsions:
REMARK  status: ('A' for Active; 'I' for Inactive)
REMARK    1  A    between atoms: _1  and  _3
REMARK    2  A    between atoms: _3  and  _4
REMARK    3  A    between atoms: _3  and  _6
REMARK    4  A    between atoms: _6  and  _7
REMARK    5  A    between atoms: _12  and  _14
REMARK    6  A    between atoms: _14  and  _15
REMARK    7  A    between atoms: _14  and  _17
REMARK    8  A    between atoms: _20  and  _22
REMARK    9  A    between atoms: _22  and  _23
REMARK   10  A    between atoms: _22  and  _25
REMARK   11  A    between atoms: _25  and  _26
REMARK   12  A    between atoms: _29  and  _31
REMARK   13  A    between atoms: _31  and  _32
REMARK   14  A    between atoms: _31  and  _34
REMARK   15  A    between atoms: _34  and  _35
REMARK   16  A    between atoms: _38  and  _40
REMARK   17  A    between atoms: _40  and  _41
REMARK   18  A    between atoms: _40  and  _43
REMARK   19  A    between atoms: _43  and  _44
REMARK   20  A    between atoms: _47  and  _49
REMARK   21  A    between atoms: _49  and  _50
REMARK   22  A    between atoms: _49  and  _52
REMARK   23  A    between atoms: _52  and  _53
REMARK   24  A    between atoms: _58  and  _59
REMARK   25  A    between atoms: _61  and  _63
REMARK   26  A    between atoms: _63  and  _64
REMARK   27  A    between atoms: _66  and  _68
REMARK   28  A    between atoms: _68  and  _69
REMARK   29  A    between atoms: _71  and  _73
REMARK   30  A    between atoms: _73  and  _74
REMARK   31  A    between atoms: _73  and  _76
REMARK   32  A    between atoms: _76  and  _77
REMARK   33  A    between atoms: _77  and  _78
REMARK   34  A    between atoms: _83  and  _85
REMARK   35  A    between atoms: _85  and  _86
REMARK   36  A    between atoms: _85  and  _88
REMARK   37  A    between atoms: _88  and  _89
REMARK   38  A    between atoms: _92  and  _94
REMARK   39  A    between atoms: _94  and  _95
REMARK   40  A    between atoms: _94  and  _97
REMARK   41  A    between atoms: _97  and  _98
REMARK   42  A    between atoms: _101  and  _103
REMARK   43  A    between atoms: _103  and  _104
REMARK   44  A    between atoms: _103  and  _106
REMARK   45  A    between atoms: _106  and  _107
REMARK   46  A    between atoms: _107  and  _108
REMARK   47  A    between atoms: _113  and  _115
REMARK   48  A    between atoms: _115  and  _116
REMARK   49  A    between atoms: _115  and  _118
REMARK   50  A    between atoms: _121  and  _123
REMARK   51  A    between atoms: _123  and  _124
REMARK   52  A    between atoms: _123  and  _126
REMARK   53  A    between atoms: _126  and  _127
REMARK   54  A    between atoms: _133  and  _135
REMARK   55  A    between atoms: _135  and  _136
REMARK   56  A    between atoms: _135  and  _138
REMARK   57  A    between atoms: _138  and  _139
REMARK   58  A    between atoms: _144  and  _146
REMARK   59  A    between atoms: _146  and  _147
REMARK   60  A    between atoms: _146  and  _149
REMARK   61  A    between atoms: _149  and  _150
REMARK   62  A    between atoms: _152  and  _154
REMARK   63  A    between atoms: _154  and  _155
REMARK   64  A    between atoms: _154  and  _157
REMARK   65  A    between atoms: _157  and  _158
REMARK   66  A    between atoms: _163  and  _165
REMARK   67  A    between atoms: _165  and  _166
REMARK   68  A    between atoms: _168  and  _170
REMARK   69  A    between atoms: _170  and  _171
REMARK   70  A    between atoms: _173  and  _175
REMARK   71  A    between atoms: _175  and  _176
REMARK   72  A    between atoms: _175  and  _178
REMARK   73  A    between atoms: _178  and  _179
REMARK   74  A    between atoms: _182  and  _184
REMARK   75  A    between atoms: _184  and  _185
REMARK   76  A    between atoms: _184  and  _187
REMARK   77  A    between atoms: _187  and  _188
REMARK   78  A    between atoms: _193  and  _195
REMARK   79  A    between atoms: _195  and  _196
REMARK   80  A    between atoms: _195  and  _198
REMARK   81  A    between atoms: _198  and  _199
REMARK   82  A    between atoms: _199  and  _200
REMARK                            x       y       z     vdW  Elec       q    Type
REMARK                         _______ _______ _______ _____ _____    ______ ____
ROOT
ATOM      1  CB  ASN A   1      66.290   8.253   2.903  0.00  0.00    +0.110 C 
ENDROOT
BRANCH   1   2
ATOM      2  CG  ASN A   1      66.523   9.663   2.440  0.00  0.00    +0.221 C 
ATOM      3  OD1 ASN A   1      67.619  10.183   2.576  0.00  0.00    -0.275 OA
ATOM      4  ND2 ASN A   1      65.488  10.288   1.901  0.00  0.00    -0.329 N 
ATOM      5 HD21 ASN A   1      64.575   9.798   1.809  0.00  0.00    +0.145 HD
ATOM      6 HD22 ASN A   1      65.588  11.269   1.570  0.00  0.00    +0.145 HD
ENDBRANCH   1   2
BRANCH   1   7
ATOM      7  CA  ASN A   1      67.523   7.367   2.723  0.00  0.00    +0.142 C 
BRANCH   7   8
ATOM      8  N   ASN A   1      67.781   7.199   1.292  0.00  0.00    -0.239 NA
ATOM      9  H   ASN A   1      66.970   7.044   0.659  0.00  0.00    +0.142 HD
ENDBRANCH   7   8
BRANCH   7  10
ATOM     10  C   ASN A   1      67.274   6.051   3.460  0.00  0.00    +0.225 C 
ATOM     11  O   ASN A   1      66.935   6.039   4.637  0.00  0.00    -0.287 OA
ENDBRANCH   7  10
ENDBRANCH   1   7
TORSDOF 4
REMARK  Name = ../refined-set-2016/4ouj/4ouj_pocket.pdb
REMARK  82 active torsions:
REMARK  status: ('A' for Active; 'I' for Inactive)
REMARK    1  A    between atoms: _1  and  _3
REMARK    2  A    between atoms: _3  and  _4
REMARK    3  A    between atoms: _3  and  _6
REMARK    4  A    between atoms: _6  and  _7
REMARK    5  A    between atoms: _12  and  _14
REMARK    6  A    between atoms: _14  and  _15
REMARK    7  A    between atoms: _14  and  _17
REMARK    8  A    between atoms: _20  and  _22
REMARK    9  A    between atoms: _22  and  _23
REMARK   10  A    between atoms: _22  and  _25
REMARK   11  A    between atoms: _25  and  _26
REMARK   12  A    between atoms: _29  and  _31
REMARK   13  A    between atoms: _31  and  _32
REMARK   14  A    between atoms: _31  and  _34
REMARK   15  A    between atoms: _34  and  _35
REMARK   16  A    between atoms: _38  and  _40
REMARK   17  A    between atoms: _40  and  _41
REMARK   18  A    between atoms: _40  and  _43
REMARK   19  A    between atoms: _43  and  _44
REMARK   20  A    between atoms: _47  and  _49
REMARK   21  A    between atoms: _49  and  _50
REMARK   22  A    between atoms: _49  and  _52
REMARK   23  A    between atoms: _52  and  _53
REMARK   24  A    between atoms: _58  and  _59
REMARK   25  A    between atoms: _61  and  _63
REMARK   26  A    between atoms: _63  and  _64
REMARK   27  A    between atoms: _66  and  _68
REMARK   28  A    between atoms: _68  and  _69
REMARK   29  A    between atoms: _71  and  _73
REMARK   30  A    between atoms: _73  and  _74
REMARK   31  A    between atoms: _73  and  _76
REMARK   32  A    between atoms: _76  and  _77
REMARK   33  A    between atoms: _77  and  _78
REMARK   34  A    between atoms: _83  and  _85
REMARK   35  A    between atoms: _85  and  _86
REMARK   36  A    between atoms: _85  and  _88
REMARK   37  A    between atoms: _88  and  _89
REMARK   38  A    between atoms: _92  and  _94
REMARK   39  A    between atoms: _94  and  _95
REMARK   40  A    between atoms: _94  and  _97
REMARK   41  A    between atoms: _97  and  _98
REMARK   42  A    between atoms: _101  and  _103
REMARK   43  A    between atoms: _103  and  _104
REMARK   44  A    between atoms: _103  and  _106
REMARK   45  A    between atoms: _106  and  _107
REMARK   46  A    between atoms: _107  and  _108
REMARK   47  A    between atoms: _113  and  _115
REMARK   48  A    between atoms: _115  and  _116
REMARK   49  A    between atoms: _115  and  _118
REMARK   50  A    between atoms: _121  and  _123
REMARK   51  A    between atoms: _123  and  _124
REMARK   52  A    between atoms: _123  and  _126
REMARK   53  A    between atoms: _126  and  _127
REMARK   54  A    between atoms: _133  and  _135
REMARK   55  A    between atoms: _135  and  _136
REMARK   56  A    between atoms: _135  and  _138
REMARK   57  A    between atoms: _138  and  _139
REMARK   58  A    between atoms: _144  and  _146
REMARK   59  A    between atoms: _146  and  _147
REMARK   60  A    between atoms: _146  and  _149
REMARK   61  A    between atoms: _149  and  _150
REMARK   62  A    between atoms: _152  and  _154
REMARK   63  A    between atoms: _154  and  _155
REMARK   64  A    between atoms: _154  and  _157
REMARK   65  A    between atoms: _157  and  _158
REMARK   66  A    between atoms: _163  and  _165
REMARK   67  A    between atoms: _165  and  _166
REMARK   68  A    between atoms: _168  and  _170
REMARK   69  A    between atoms: _170  and  _171
REMARK   70  A    between atoms: _173  and  _175
REMARK   71  A    between atoms: _175  and  _176
REMARK   72  A    between atoms: _175  and  _178
REMARK   73  A    between atoms: _178  and  _179
REMARK   74  A    between atoms: _182  and  _184
REMARK   75  A    between atoms: _184  and  _185
REMARK   76  A    between atoms: _184  and  _187
REMARK   77  A    between atoms: _187  and  _188
REMARK   78  A    between atoms: _193  and  _195
REMARK   79  A    between atoms: _195  and  _196
REMARK   80  A    between atoms: _195  and  _198
REMARK   81  A    between atoms: _198  and  _199
REMARK   82  A    between atoms: _199  and  _200
REMARK                            x       y       z     vdW  Elec       q    Type
REMARK                         _______ _______ _______ _____ _____    ______ ____
ROOT
ATOM      1  C   LEU A   4      58.974   8.821   9.756  0.00  0.00    +0.241 C 
ATOM      2  O   LEU A   4      58.550   9.982   9.808  0.00  0.00    -0.273 OA
ATOM      3  N   TYR A   5      58.838   8.061   8.671  0.00  0.00    -0.297 N 
ATOM      4  H   TYR A   5      59.085   7.052   8.727  0.00  0.00    +0.150 HD
ENDROOT
BRANCH   3   5
ATOM      5  CA  TYR A   5      58.351   8.604   7.403  0.00  0.00    +0.153 C 
BRANCH   5   6
ATOM      6  C   TYR A   5      57.052   9.393   7.555  0.00  0.00    +0.241 C 
ATOM      7  O   TYR A   5      56.025   8.845   7.974  0.00  0.00    -0.273 OA
ATOM      8  N   GLY A   6      57.108  10.675   7.192  0.00  0.00    -0.295 N 
ATOM      9  H   GLY A   6      58.024  11.073   6.903  0.00  0.00    +0.150 HD
BRANCH   8  10
ATOM     10  CA  GLY A   6      55.940  11.537   7.184  0.00  0.00    +0.176 C 
BRANCH  10  11
ATOM     11  C   GLY A   6      55.246  11.780   8.501  0.00  0.00    +0.243 C 
ATOM     12  N   GLY A   7      55.883  11.396   9.602  0.00  0.00    -0.295 N 
ATOM     13  H   GLY A   7      56.890  11.144   9.535  0.00  0.00    +0.150 HD
ATOM     14  O   GLY A   6      54.124  12.320   8.503  0.00  0.00    -0.273 OA
BRANCH  12  15
ATOM     15  CA  GLY A   7      55.228  11.314  10.897  0.00  0.00    +0.176 C 
BRANCH  15  16
ATOM     16  C   GLY A   7      54.029  10.383  10.936  0.00  0.00    +0.243 C 
ATOM     17  O   GLY A   7      53.156  10.518  11.784  0.00  0.00    -0.273 OA
ATOM     18  N   GLN A   8      53.979   9.430  10.011  0.00  0.00    -0.298 N 
ATOM     19  H   GLN A   8      54.734   9.388   9.297  0.00  0.00    +0.150 HD
BRANCH  18  20
ATOM     20  CA  GLN A   8      52.911   8.444   9.957  0.00  0.00    +0.137 C 
BRANCH  20  21
ATOM     21  C   GLN A   8      53.098   7.434  11.084  0.00  0.00    +0.227 C 
ATOM     22  O   GLN A   8      54.215   7.062  11.409  0.00  0.00    -0.286 OA
ENDBRANCH  20  21
BRANCH  20  23
ATOM     23  CB  GLN A   8      52.876   7.753   8.580  0.00  0.00    +0.037 C 
BRANCH  23  24
ATOM     24  CG  GLN A   8      52.574   8.666   7.409  0.00  0.00    +0.087 C 
BRANCH  24  25
ATOM     25  CD  GLN A   8      52.878   8.039   6.031  0.00  0.00    +0.219 C 
ATOM     26  OE1 GLN A   8      53.227   6.856   5.912  0.00  0.00    -0.275 OA
ATOM     27  NE2 GLN A   8      52.756   8.856   4.990  0.00  0.00    -0.329 N 
ATOM     28 HE21 GLN A   8      52.460   9.842   5.135  0.00  0.00    +0.145 HD
ATOM     29 HE22 GLN A   8      52.956   8.509   4.030  0.00  0.00    +0.145 HD
ENDBRANCH  24  25
ENDBRANCH  23  24
ENDBRANCH  20  23
ENDBRANCH  18  20
ENDBRANCH  15  16
ENDBRANCH  12  15
ENDBRANCH  10  11
ENDBRANCH   8  10
ENDBRANCH   5   6
BRANCH   5  30
ATOM     30  CB  TYR A   5      58.125   7.464   6.390  0.00  0.00    +0.055 C 
BRANCH  30  31
ATOM     31  CG  TYR A   5      57.785   7.981   5.017  0.00  0.00    -0.020 A 
ATOM     32  CD2 TYR A   5      56.489   8.352   4.693  0.00  0.00    -0.001 A 
ATOM     33  CE2 TYR A   5      56.179   8.855   3.456  0.00  0.00    +0.036 A 
ATOM     34  CZ  TYR A   5      57.183   8.995   2.505  0.00  0.00    +0.134 A 
ATOM     35  CE1 TYR A   5      58.465   8.615   2.797  0.00  0.00    +0.036 A 
ATOM     36  CD1 TYR A   5      58.762   8.113   4.035  0.00  0.00    -0.001 A 
BRANCH  34  37
ATOM     37  OH  TYR A   5      56.870   9.512   1.265  0.00  0.00    -0.506 OA
ATOM     38  HH  TYR A   5      55.905   9.730   1.234  0.00  0.00    +0.292 HD
ENDBRANCH  34  37
ENDBRANCH  30  31
ENDBRANCH   5  30
ENDBRANCH   3   5
BRANCH   1  39
ATOM     39  CA  LEU A   4      59.686   8.190  10.933  0.00  0.00    +0.149 C 
BRANCH  39  41
ATOM     40  C   ASP A   3      62.050   8.633  10.542  0.00  0.00    +0.241 C 
ATOM     41  N   LEU A   4      60.913   8.927  11.149  0.00  0.00    -0.297 N 
ATOM     42  H   LEU A   4      60.899   9.727  11.814  0.00  0.00    +0.150 HD
ATOM     43  O   ASP A   3      62.190   7.601   9.881  0.00  0.00    -0.273 OA
BRANCH  40  44
ATOM     44  CA  ASP A   3      63.196   9.614  10.760  0.00  0.00    +0.160 C 
BRANCH  44  47
ATOM     45  C   LEU A   2      65.249   9.381  12.071  0.00  0.00    +0.241 C 
ATOM     46  O   LEU A   2      64.979  10.337  12.805  0.00  0.00    -0.273 OA
ATOM     47  N   ASP A   3      64.380   8.887  11.191  0.00  0.00    -0.297 N 
ATOM     48  H   ASP A   3      64.555   7.941  10.795  0.00  0.00    +0.150 HD
BRANCH  45  49
ATOM     49  CA  LEU A   2      66.607   8.712  12.116  0.00  0.00    +0.149 C 
BRANCH  49  51
ATOM     50  C   VAL A   1      67.824  10.613  11.191  0.00  0.00    +0.238 C 
ATOM     51  N   LEU A   2      67.643   9.734  12.173  0.00  0.00    -0.297 N 
ATOM     52  H   LEU A   2      68.261   9.778  13.008  0.00  0.00    +0.150 HD
ATOM     53  O   VAL A   1      67.170  10.576  10.136  0.00  0.00    -0.274 OA
BRANCH  50  54
ATOM     54  CA  VAL A   1      68.900  11.681  11.411  0.00  0.00    +0.145 C 
BRANCH  54  55
ATOM     55  CB  VAL A   1      68.346  12.818  12.313  0.00  0.00    +0.025 C 
ATOM     56  CG2 VAL A   1      69.386  13.917  12.485  0.00  0.00    +0.002 C 
ATOM     57  CG1 VAL A   1      67.080  13.422  11.738  0.00  0.00    +0.002 C 
ENDBRANCH  54  55
BRANCH  54  58
ATOM     58  N   VAL A   1      69.361  12.181  10.120  0.00  0.00    -0.238 NA
ATOM     59  H   VAL A   1      68.665  12.517   9.424  0.00  0.00    +0.142 HD
ENDBRANCH  54  58
ENDBRANCH  50  54
ENDBRANCH  49  51
BRANCH  49  60
ATOM     60  CB  LEU A   2      66.729   7.752  13.312  0.00  0.00    +0.029 C 
BRANCH  60  61
ATOM     61  CG  LEU A   2      66.060   6.390  13.120  0.00  0.00    +0.002 C 
ATOM     62  CD2 LEU A   2      65.937   5.683  14.445  0.00  0.00    +0.000 C 
ATOM     63  CD1 LEU A   2      66.848   5.531  12.111  0.00  0.00    +0.000 C 
ENDBRANCH  60  61
ENDBRANCH  49  60
ENDBRANCH  45  49
ENDBRANCH  44  47
BRANCH  44  64
ATOM     64  CB  ASP A   3      63.564  10.352   9.457  0.00  0.00    +0.143 C 
BRANCH  64  65
ATOM     65  CG  ASP A   3      62.415  11.154   8.841  0.00  0.00    +0.367 C 
ATOM     66  OD2 ASP A   3      62.432  12.404   8.924  0.00  0.00    -0.246 OA
ATOM     67  OD1 ASP A   3      61.507  10.544   8.224  0.00  0.00    -0.246 OA
ENDBRANCH  64  65
ENDBRANCH  44  64
ENDBRANCH  40  44
ENDBRANCH  39  41
BRANCH  39  68
ATOM     68  CB  LEU A   4      58.815   8.309  12.180  0.00  0.00    +0.029 C 
BRANCH  68  69
ATOM     69  CG  LEU A   4      57.434   7.693  12.117  0.00  0.00    +0.002 C 
ATOM     70  CD2 LEU A   4      56.596   8.142  13.338  0.00  0.00    +0.000 C 
ATOM     71  CD1 LEU A   4      57.517   6.177  12.025  0.00  0.00    +0.000 C 
ENDBRANCH  68  69
ENDBRANCH  39  68
ENDBRANCH   1  39
TORSDOF 29
REMARK  Name = ../refined-set-2016/4ouj/4ouj_pocket.pdb
REMARK  82 active torsions:
REMARK  status: ('A' for Active; 'I' for Inactive)
REMARK    1  A    between atoms: _1  and  _3
REMARK    2  A    between atoms: _3  and  _4
REMARK    3  A    between atoms: _3  and  _6
REMARK    4  A    between atoms: _6  and  _7
REMARK    5  A    between atoms: _12  and  _14
REMARK    6  A    between atoms: _14  and  _15
REMARK    7  A    between atoms: _14  and  _17
REMARK    8  A    between atoms: _20  and  _22
REMARK    9  A    between atoms: _22  and  _23
REMARK   10  A    between atoms: _22  and  _25
REMARK   11  A    between atoms: _25  and  _26
REMARK   12  A    between atoms: _29  and  _31
REMARK   13  A    between atoms: _31  and  _32
REMARK   14  A    between atoms: _31  and  _34
REMARK   15  A    between atoms: _34  and  _35
REMARK   16  A    between atoms: _38  and  _40
REMARK   17  A    between atoms: _40  and  _41
REMARK   18  A    between atoms: _40  and  _43
REMARK   19  A    between atoms: _43  and  _44
REMARK   20  A    between atoms: _47  and  _49
REMARK   21  A    between atoms: _49  and  _50
REMARK   22  A    between atoms: _49  and  _52
REMARK   23  A    between atoms: _52  and  _53
REMARK   24  A    between atoms: _58  and  _59
REMARK   25  A    between atoms: _61  and  _63
REMARK   26  A    between atoms: _63  and  _64
REMARK   27  A    between atoms: _66  and  _68
REMARK   28  A    between atoms: _68  and  _69
REMARK   29  A    between atoms: _71  and  _73
REMARK   30  A    between atoms: _73  and  _74
REMARK   31  A    between atoms: _73  and  _76
REMARK   32  A    between atoms: _76  and  _77
REMARK   33  A    between atoms: _77  and  _78
REMARK   34  A    between atoms: _83  and  _85
REMARK   35  A    between atoms: _85  and  _86
REMARK   36  A    between atoms: _85  and  _88
REMARK   37  A    between atoms: _88  and  _89
REMARK   38  A    between atoms: _92  and  _94
REMARK   39  A    between atoms: _94  and  _95
REMARK   40  A    between atoms: _94  and  _97
REMARK   41  A    between atoms: _97  and  _98
REMARK   42  A    between atoms: _101  and  _103
REMARK   43  A    between atoms: _103  and  _104
REMARK   44  A    between atoms: _103  and  _106
REMARK   45  A    between atoms: _106  and  _107
REMARK   46  A    between atoms: _107  and  _108
REMARK   47  A    between atoms: _113  and  _115
REMARK   48  A    between atoms: _115  and  _116
REMARK   49  A    between atoms: _115  and  _118
REMARK   50  A    between atoms: _121  and  _123
REMARK   51  A    between atoms: _123  and  _124
REMARK   52  A    between atoms: _123  and  _126
REMARK   53  A    between atoms: _126  and  _127
REMARK   54  A    between atoms: _133  and  _135
REMARK   55  A    between atoms: _135  and  _136
REMARK   56  A    between atoms: _135  and  _138
REMARK   57  A    between atoms: _138  and  _139
REMARK   58  A    between atoms: _144  and  _146
REMARK   59  A    between atoms: _146  and  _147
REMARK   60  A    between atoms: _146  and  _149
REMARK   61  A    between atoms: _149  and  _150
REMARK   62  A    between atoms: _152  and  _154
REMARK   63  A    between atoms: _154  and  _155
REMARK   64  A    between atoms: _154  and  _157
REMARK   65  A    between atoms: _157  and  _158
REMARK   66  A    between atoms: _163  and  _165
REMARK   67  A    between atoms: _165  and  _166
REMARK   68  A    between atoms: _168  and  _170
REMARK   69  A    between atoms: _170  and  _171
REMARK   70  A    between atoms: _173  and  _175
REMARK   71  A    between atoms: _175  and  _176
REMARK   72  A    between atoms: _175  and  _178
REMARK   73  A    between atoms: _178  and  _179
REMARK   74  A    between atoms: _182  and  _184
REMARK   75  A    between atoms: _184  and  _185
REMARK   76  A    between atoms: _184  and  _187
REMARK   77  A    between atoms: _187  and  _188
REMARK   78  A    between atoms: _193  and  _195
REMARK   79  A    between atoms: _195  and  _196
REMARK   80  A    between atoms: _195  and  _198
REMARK   81  A    between atoms: _198  and  _199
REMARK   82  A    between atoms: _199  and  _200
REMARK                            x       y       z     vdW  Elec       q    Type
REMARK                         _______ _______ _______ _____ _____    ______ ____
ROOT
ATOM      1  C   THR A   1      57.013   2.723   8.410  0.00  0.00    +0.241 C 
ATOM      2  O   THR A   1      57.613   2.123   9.294  0.00  0.00    -0.274 OA
ATOM      3  N   THR A   2      57.619   3.261   7.366  0.00  0.00    -0.296 N 
ATOM      4  H   THR A   2      57.038   3.763   6.665  0.00  0.00    +0.150 HD
ENDROOT
BRANCH   1   5
ATOM      5  CA  THR A   1      55.503   2.906   8.456  0.00  0.00    +0.172 C 
BRANCH   5   6
ATOM      6  N   THR A   1      54.892   1.646   8.896  0.00  0.00    -0.236 NA
ATOM      7  H   THR A   1      54.299   1.635   9.750  0.00  0.00    +0.142 HD
ENDBRANCH   5   6
BRANCH   5   8
ATOM      8  CB  THR A   1      55.140   4.077   9.386  0.00  0.00    +0.135 C 
ATOM      9  CG2 THR A   1      55.802   5.377   8.953  0.00  0.00    +0.034 C 
BRANCH   8  10
ATOM     10  OG1 THR A   1      53.725   4.252   9.365  0.00  0.00    -0.383 OA
ATOM     11  HG1 THR A   1      53.478   5.003   9.960  0.00  0.00    +0.210 HD
ENDBRANCH   8  10
ENDBRANCH   5   8
ENDBRANCH   1   5
BRANCH   3  12
ATOM     12  CA  THR A   2      59.036   3.189   7.148  0.00  0.00    +0.164 C 
BRANCH  12  13
ATOM     13  C   THR A   2      59.820   3.990   8.176  0.00  0.00    +0.229 C 
ATOM     14  O   THR A   2      59.492   5.131   8.503  0.00  0.00    -0.286 OA
ENDBRANCH  12  13
BRANCH  12  15
ATOM     15  CB  THR A   2      59.317   3.711   5.728  0.00  0.00    +0.136 C 
ATOM     16  CG2 THR A   2      60.795   3.911   5.477  0.00  0.00    +0.034 C 
BRANCH  15  17
ATOM     17  OG1 THR A   2      58.788   2.785   4.778  0.00  0.00    -0.382 OA
ATOM     18  HG1 THR A   2      58.966   3.116   3.862  0.00  0.00    +0.210 HD
ENDBRANCH  15  17
ENDBRANCH  12  15
ENDBRANCH   3  12
TORSDOF 8
REMARK  Name = ../refined-set-2016/4ouj/4ouj_pocket.pdb
REMARK  82 active torsions:
REMARK  status: ('A' for Active; 'I' for Inactive)
REMARK    1  A    between atoms: _1  and  _3
REMARK    2  A    between atoms: _3  and  _4
REMARK    3  A    between atoms: _3  and  _6
REMARK    4  A    between atoms: _6  and  _7
REMARK    5  A    between atoms: _12  and  _14
REMARK    6  A    between atoms: _14  and  _15
REMARK    7  A    between atoms: _14  and  _17
REMARK    8  A    between atoms: _20  and  _22
REMARK    9  A    between atoms: _22  and  _23
REMARK   10  A    between atoms: _22  and  _25
REMARK   11  A    between atoms: _25  and  _26
REMARK   12  A    between atoms: _29  and  _31
REMARK   13  A    between atoms: _31  and  _32
REMARK   14  A    between atoms: _31  and  _34
REMARK   15  A    between atoms: _34  and  _35
REMARK   16  A    between atoms: _38  and  _40
REMARK   17  A    between atoms: _40  and  _41
REMARK   18  A    between atoms: _40  and  _43
REMARK   19  A    between atoms: _43  and  _44
REMARK   20  A    between atoms: _47  and  _49
REMARK   21  A    between atoms: _49  and  _50
REMARK   22  A    between atoms: _49  and  _52
REMARK   23  A    between atoms: _52  and  _53
REMARK   24  A    between atoms: _58  and  _59
REMARK   25  A    between atoms: _61  and  _63
REMARK   26  A    between atoms: _63  and  _64
REMARK   27  A    between atoms: _66  and  _68
REMARK   28  A    between atoms: _68  and  _69
REMARK   29  A    between atoms: _71  and  _73
REMARK   30  A    between atoms: _73  and  _74
REMARK   31  A    between atoms: _73  and  _76
REMARK   32  A    between atoms: _76  and  _77
REMARK   33  A    between atoms: _77  and  _78
REMARK   34  A    between atoms: _83  and  _85
REMARK   35  A    between atoms: _85  and  _86
REMARK   36  A    between atoms: _85  and  _88
REMARK   37  A    between atoms: _88  and  _89
REMARK   38  A    between atoms: _92  and  _94
REMARK   39  A    between atoms: _94  and  _95
REMARK   40  A    between atoms: _94  and  _97
REMARK   41  A    between atoms: _97  and  _98
REMARK   42  A    between atoms: _101  and  _103
REMARK   43  A    between atoms: _103  and  _104
REMARK   44  A    between atoms: _103  and  _106
REMARK   45  A    between atoms: _106  and  _107
REMARK   46  A    between atoms: _107  and  _108
REMARK   47  A    between atoms: _113  and  _115
REMARK   48  A    between atoms: _115  and  _116
REMARK   49  A    between atoms: _115  and  _118
REMARK   50  A    between atoms: _121  and  _123
REMARK   51  A    between atoms: _123  and  _124
REMARK   52  A    between atoms: _123  and  _126
REMARK   53  A    between atoms: _126  and  _127
REMARK   54  A    between atoms: _133  and  _135
REMARK   55  A    between atoms: _135  and  _136
REMARK   56  A    between atoms: _135  and  _138
REMARK   57  A    between atoms: _138  and  _139
REMARK   58  A    between atoms: _144  and  _146
REMARK   59  A    between atoms: _146  and  _147
REMARK   60  A    between atoms: _146  and  _149
REMARK   61  A    between atoms: _149  and  _150
REMARK   62  A    between atoms: _152  and  _154
REMARK   63  A    between atoms: _154  and  _155
REMARK   64  A    between atoms: _154  and  _157
REMARK   65  A    between atoms: _157  and  _158
REMARK   66  A    between atoms: _163  and  _165
REMARK   67  A    between atoms: _165  and  _166
REMARK   68  A    between atoms: _168  and  _170
REMARK   69  A    between atoms: _170  and  _171
REMARK   70  A    between atoms: _173  and  _175
REMARK   71  A    between atoms: _175  and  _176
REMARK   72  A    between atoms: _175  and  _178
REMARK   73  A    between atoms: _178  and  _179
REMARK   74  A    between atoms: _182  and  _184
REMARK   75  A    between atoms: _184  and  _185
REMARK   76  A    between atoms: _184  and  _187
REMARK   77  A    between atoms: _187  and  _188
REMARK   78  A    between atoms: _193  and  _195
REMARK   79  A    between atoms: _195  and  _196
REMARK   80  A    between atoms: _195  and  _198
REMARK   81  A    between atoms: _198  and  _199
REMARK   82  A    between atoms: _199  and  _200
REMARK                            x       y       z     vdW  Elec       q    Type
REMARK                         _______ _______ _______ _____ _____    ______ ____
ROOT
ATOM      1  C   SER A   5      66.589  18.241   9.911  0.00  0.00    +0.243 C 
ATOM      2  N   ASN A   6      65.374  18.191  10.450  0.00  0.00    -0.297 N 
ATOM      3  H   ASN A   6      65.095  17.375  11.031  0.00  0.00    +0.150 HD
ATOM      4  O   SER A   5      67.008  19.225   9.315  0.00  0.00    -0.273 OA
ENDROOT
BRANCH   2   5
ATOM      5  CA  ASN A   6      64.438  19.280  10.224  0.00  0.00    +0.158 C 
BRANCH   5   6
ATOM      6  C   ASN A   6      63.610  19.689  11.438  0.00  0.00    +0.241 C 
ATOM      7  N   GLY A   7      63.949  19.110  12.582  0.00  0.00    -0.295 N 
ATOM      8  H   GLY A   7      64.682  18.372  12.577  0.00  0.00    +0.150 HD
ATOM      9  O   ASN A   6      62.725  20.548  11.351  0.00  0.00    -0.273 OA
BRANCH   7  10
ATOM     10  CA  GLY A   7      63.324  19.478  13.843  0.00  0.00    +0.176 C 
BRANCH  10  11
ATOM     11  C   GLY A   7      61.934  18.923  14.063  0.00  0.00    +0.243 C 
ATOM     12  O   GLY A   7      61.273  19.269  15.042  0.00  0.00    -0.273 OA
ATOM     13  N   GLY A   8      61.484  18.039  13.177  0.00  0.00    -0.295 N 
ATOM     14  H   GLY A   8      62.101  17.727  12.400  0.00  0.00    +0.150 HD
BRANCH  13  15
ATOM     15  CA  GLY A   8      60.141  17.507  13.287  0.00  0.00    +0.176 C 
BRANCH  15  16
ATOM     16  C   GLY A   8      59.991  16.540  14.444  0.00  0.00    +0.243 C 
ATOM     17  N   ASP A   9      58.762  16.425  14.950  0.00  0.00    -0.296 N 
ATOM     18  H   ASP A   9      58.001  17.036  14.590  0.00  0.00    +0.150 HD
ATOM     19  O   GLY A   8      60.958  15.874  14.861  0.00  0.00    -0.273 OA
BRANCH  17  20
ATOM     20  CA  ASP A   9      58.468  15.457  16.000  0.00  0.00    +0.160 C 
BRANCH  20  21
ATOM     21  C   ASP A   9      58.765  14.035  15.527  0.00  0.00    +0.241 C 
ATOM     22  O   ASP A   9      59.039  13.168  16.344  0.00  0.00    -0.273 OA
ATOM     23  N   ASN A  10      58.705  13.804  14.213  0.00  0.00    -0.297 N 
ATOM     24  H   ASN A  10      58.441  14.586  13.580  0.00  0.00    +0.150 HD
BRANCH  23  25
ATOM     25  CA  ASN A  10      58.996  12.498  13.631  0.00  0.00    +0.158 C 
BRANCH  25  26
ATOM     26  C   ASN A  10      60.487  12.158  13.574  0.00  0.00    +0.241 C 
ATOM     27  N   GLN A  11      61.332  13.019  14.125  0.00  0.00    -0.298 N 
ATOM     28  H   GLN A  11      60.958  13.918  14.490  0.00  0.00    +0.150 HD
ATOM     29  O   ASN A  10      60.853  11.110  13.050  0.00  0.00    -0.273 OA
BRANCH  27  30
ATOM     30  CA  GLN A  11      62.756  12.763  14.241  0.00  0.00    +0.137 C 
BRANCH  30  31
ATOM     31  C   GLN A  11      63.193  12.702  15.713  0.00  0.00    +0.227 C 
ATOM     32  O   GLN A  11      64.377  12.757  16.008  0.00  0.00    -0.286 OA
ENDBRANCH  30  31
BRANCH  30  33
ATOM     33  CB  GLN A  11      63.546  13.831  13.492  0.00  0.00    +0.037 C 
BRANCH  33  34
ATOM     34  CG  GLN A  11      63.214  13.859  12.003  0.00  0.00    +0.087 C 
BRANCH  34  35
ATOM     35  CD  GLN A  11      64.065  14.810  11.187  0.00  0.00    +0.219 C 
ATOM     36  OE1 GLN A  11      64.621  15.780  11.691  0.00  0.00    -0.275 OA
ATOM     37  NE2 GLN A  11      64.141  14.540   9.904  0.00  0.00    -0.329 N 
ATOM     38 HE21 GLN A  11      63.653  13.706   9.518  0.00  0.00    +0.145 HD
ATOM     39 HE22 GLN A  11      64.689  15.160   9.274  0.00  0.00    +0.145 HD
ENDBRANCH  34  35
ENDBRANCH  33  34
ENDBRANCH  30  33
ENDBRANCH  27  30
ENDBRANCH  25  26
BRANCH  25  40
ATOM     40  CB  ASN A  10      58.431  12.402  12.224  0.00  0.00    +0.114 C 
BRANCH  40  41
ATOM     41  CG  ASN A  10      59.137  13.322  11.247  0.00  0.00    +0.222 C 
ATOM     42  OD1 ASN A  10      59.410  14.481  11.566  0.00  0.00    -0.275 OA
ATOM     43  ND2 ASN A  10      59.403  12.829  10.034  0.00  0.00    -0.329 N 
ATOM     44 HD21 ASN A  10      59.156  11.845   9.807  0.00  0.00    +0.145 HD
ATOM     45 HD22 ASN A  10      59.857  13.430   9.317  0.00  0.00    +0.145 HD
ENDBRANCH  40  41
ENDBRANCH  25  40
ENDBRANCH  23  25
ENDBRANCH  20  21
BRANCH  20  46
ATOM     46  CB  ASP A   9      57.001  15.551  16.426  0.00  0.00    +0.143 C 
BRANCH  46  47
ATOM     47  CG  ASP A   9      56.722  16.723  17.321  0.00  0.00    +0.367 C 
ATOM     48  OD2 ASP A   9      57.684  17.312  17.852  0.00  0.00    -0.246 OA
ATOM     49  OD1 ASP A   9      55.529  17.031  17.504  0.00  0.00    -0.246 OA
ENDBRANCH  46  47
ENDBRANCH  20  46
ENDBRANCH  17  20
ENDBRANCH  15  16
ENDBRANCH  13  15
ENDBRANCH  10  11
ENDBRANCH   7  10
ENDBRANCH   5   6
BRANCH   5  50
ATOM     50  CB  ASN A   6      63.571  18.969   9.006  0.00  0.00    +0.114 C 
BRANCH  50  51
ATOM     51  CG  ASN A   6      62.749  17.745   9.173  0.00  0.00    +0.222 C 
ATOM     52  OD1 ASN A   6      62.242  17.460  10.256  0.00  0.00    -0.275 OA
ATOM     53  ND2 ASN A   6      62.565  17.015   8.075  0.00  0.00    -0.329 N 
ATOM     54 HD21 ASN A   6      61.971  16.162   8.111  0.00  0.00    +0.145 HD
ATOM     55 HD22 ASN A   6      63.016  17.297   7.181  0.00  0.00    +0.145 HD
ENDBRANCH  50  51
ENDBRANCH   5  50
ENDBRANCH   2   5
BRANCH   1  56
ATOM     56  CA  SER A   5      67.497  17.043  10.104  0.00  0.00    +0.178 C 
BRANCH  56  58
ATOM     57  C   ASN A   4      67.109  16.121   7.891  0.00  0.00    +0.241 C 
ATOM     58  N   SER A   5      67.961  16.541   8.821  0.00  0.00    -0.295 N 
ATOM     59  H   SER A   5      68.982  16.510   8.626  0.00  0.00    +0.150 HD
ATOM     60  O   ASN A   4      65.899  16.105   8.064  0.00  0.00    -0.273 OA
BRANCH  57  61
ATOM     61  CA  ASN A   4      67.708  15.685   6.562  0.00  0.00    +0.158 C 
BRANCH  61  64
ATOM     62  C   PHE A   3      67.136  13.368   6.958  0.00  0.00    +0.241 C 
ATOM     63  O   PHE A   3      67.691  13.402   8.052  0.00  0.00    -0.273 OA
ATOM     64  N   ASN A   4      67.141  14.406   6.138  0.00  0.00    -0.297 N 
ATOM     65  H   ASN A   4      66.738  14.311   5.184  0.00  0.00    +0.150 HD
BRANCH  62  66
ATOM     66  CA  PHE A   3      66.370  12.148   6.504  0.00  0.00    +0.153 C 
BRANCH  66  68
ATOM     67  C   VAL A   2      66.606   9.755   6.802  0.00  0.00    +0.241 C 
ATOM     68  N   PHE A   3      66.827  10.989   7.239  0.00  0.00    -0.297 N 
ATOM     69  H   PHE A   3      67.342  11.126   8.132  0.00  0.00    +0.150 HD
ATOM     70  O   VAL A   2      65.978   9.511   5.764  0.00  0.00    -0.273 OA
BRANCH  67  71
ATOM     71  CA  VAL A   2      67.177   8.662   7.659  0.00  0.00    +0.148 C 
BRANCH  71  74
ATOM     72  C   GLN A   1      65.614   6.861   8.040  0.00  0.00    +0.238 C 
ATOM     73  O   GLN A   1      65.499   7.157   9.224  0.00  0.00    -0.274 OA
ATOM     74  N   VAL A   2      66.530   7.416   7.262  0.00  0.00    -0.297 N 
ATOM     75  H   VAL A   2      66.790   6.962   6.363  0.00  0.00    +0.150 HD
BRANCH  72  76
ATOM     76  CA  GLN A   1      64.680   5.823   7.417  0.00  0.00    +0.145 C 
BRANCH  76  77
ATOM     77  N   GLN A   1      63.659   5.478   8.387  0.00  0.00    -0.238 NA
ATOM     78  H   GLN A   1      63.345   6.198   9.069  0.00  0.00    +0.142 HD
ENDBRANCH  76  77
BRANCH  76  79
ATOM     79  CB  GLN A   1      64.021   6.424   6.168  0.00  0.00    +0.036 C 
BRANCH  79  80
ATOM     80  CG  GLN A   1      63.216   7.676   6.464  0.00  0.00    +0.087 C 
BRANCH  80  81
ATOM     81  CD  GLN A   1      62.534   8.298   5.264  0.00  0.00    +0.219 C 
ATOM     82  NE2 GLN A   1      61.848   9.417   5.504  0.00  0.00    -0.329 N 
ATOM     83 HE21 GLN A   1      61.830   9.821   6.462  0.00  0.00    +0.145 HD
ATOM     84 HE22 GLN A   1      61.331   9.885   4.733  0.00  0.00    +0.145 HD
ATOM     85  OE1 GLN A   1      62.583   7.780   4.135  0.00  0.00    -0.275 OA
ENDBRANCH  80  81
ENDBRANCH  79  80
ENDBRANCH  76  79
ENDBRANCH  72  76
ENDBRANCH  71  74
BRANCH  71  86
ATOM     86  CB  VAL A   2      68.730   8.655   7.551  0.00  0.00    +0.027 C 
ATOM     87  CG2 VAL A   2      69.324   7.585   8.436  0.00  0.00    +0.002 C 
ATOM     88  CG1 VAL A   2      69.191   8.503   6.121  0.00  0.00    +0.002 C 
ENDBRANCH  71  86
ENDBRANCH  67  71
ENDBRANCH  66  68
BRANCH  66  89
ATOM     89  CB  PHE A   3      64.867  12.376   6.723  0.00  0.00    +0.055 C 
BRANCH  89  90
ATOM     90  CG  PHE A   3      64.191  13.084   5.586  0.00  0.00    -0.020 A 
ATOM     91  CD2 PHE A   3      63.819  14.430   5.665  0.00  0.00    -0.004 A 
ATOM     92  CE2 PHE A   3      63.179  15.046   4.615  0.00  0.00    -0.000 A 
ATOM     93  CZ  PHE A   3      62.912  14.340   3.456  0.00  0.00    -0.000 A 
ATOM     94  CE1 PHE A   3      63.277  13.009   3.358  0.00  0.00    -0.000 A 
ATOM     95  CD1 PHE A   3      63.911  12.387   4.419  0.00  0.00    -0.004 A 
ENDBRANCH  89  90
ENDBRANCH  66  89
ENDBRANCH  62  66
ENDBRANCH  61  64
BRANCH  61  96
ATOM     96  CB  ASN A   4      67.416  16.734   5.504  0.00  0.00    +0.114 C 
BRANCH  96  97
ATOM     97  CG  ASN A   4      68.066  18.047   5.805  0.00  0.00    +0.222 C 
ATOM     98  OD1 ASN A   4      69.283  18.118   5.964  0.00  0.00    -0.275 OA
ATOM     99  ND2 ASN A   4      67.264  19.106   5.891  0.00  0.00    -0.329 N 
ATOM    100 HD21 ASN A   4      67.662  20.044   6.101  0.00  0.00    +0.145 HD
ATOM    101 HD22 ASN A   4      66.240  18.996   5.748  0.00  0.00    +0.145 HD
ENDBRANCH  96  97
ENDBRANCH  61  96
ENDBRANCH  57  61
ENDBRANCH  56  58
BRANCH  56 102
ATOM    102  CB  SER A   5      68.678  17.458  10.980  0.00  0.00    +0.166 C 
BRANCH 102 103
ATOM    103  OG  SER A   5      68.207  17.708  12.299  0.00  0.00    -0.380 OA
ATOM    104  H   SER A   5      68.967  17.978  12.874  0.00  0.00    +0.211 HD
ENDBRANCH 102 103
ENDBRANCH  56 102
ENDBRANCH   1  56
TORSDOF 41
REMARK  Name = ../refined-set-2016/4ouj/4ouj_pocket.pdb
REMARK  82 active torsions:
REMARK  status: ('A' for Active; 'I' for Inactive)
REMARK    1  A    between atoms: _1  and  _3
REMARK    2  A    between atoms: _3  and  _4
REMARK    3  A    between atoms: _3  and  _6
REMARK    4  A    between atoms: _6  and  _7
REMARK    5  A    between atoms: _12  and  _14
REMARK    6  A    between atoms: _14  and  _15
REMARK    7  A    between atoms: _14  and  _17
REMARK    8  A    between atoms: _20  and  _22
REMARK    9  A    between atoms: _22  and  _23
REMARK   10  A    between atoms: _22  and  _25
REMARK   11  A    between atoms: _25  and  _26
REMARK   12  A    between atoms: _29  and  _31
REMARK   13  A    between atoms: _31  and  _32
REMARK   14  A    between atoms: _31  and  _34
REMARK   15  A    between atoms: _34  and  _35
REMARK   16  A    between atoms: _38  and  _40
REMARK   17  A    between atoms: _40  and  _41
REMARK   18  A    between atoms: _40  and  _43
REMARK   19  A    between atoms: _43  and  _44
REMARK   20  A    between atoms: _47  and  _49
REMARK   21  A    between atoms: _49  and  _50
REMARK   22  A    between atoms: _49  and  _52
REMARK   23  A    between atoms: _52  and  _53
REMARK   24  A    between atoms: _58  and  _59
REMARK   25  A    between atoms: _61  and  _63
REMARK   26  A    between atoms: _63  and  _64
REMARK   27  A    between atoms: _66  and  _68
REMARK   28  A    between atoms: _68  and  _69
REMARK   29  A    between atoms: _71  and  _73
REMARK   30  A    between atoms: _73  and  _74
REMARK   31  A    between atoms: _73  and  _76
REMARK   32  A    between atoms: _76  and  _77
REMARK   33  A    between atoms: _77  and  _78
REMARK   34  A    between atoms: _83  and  _85
REMARK   35  A    between atoms: _85  and  _86
REMARK   36  A    between atoms: _85  and  _88
REMARK   37  A    between atoms: _88  and  _89
REMARK   38  A    between atoms: _92  and  _94
REMARK   39  A    between atoms: _94  and  _95
REMARK   40  A    between atoms: _94  and  _97
REMARK   41  A    between atoms: _97  and  _98
REMARK   42  A    between atoms: _101  and  _103
REMARK   43  A    between atoms: _103  and  _104
REMARK   44  A    between atoms: _103  and  _106
REMARK   45  A    between atoms: _106  and  _107
REMARK   46  A    between atoms: _107  and  _108
REMARK   47  A    between atoms: _113  and  _115
REMARK   48  A    between atoms: _115  and  _116
REMARK   49  A    between atoms: _115  and  _118
REMARK   50  A    between atoms: _121  and  _123
REMARK   51  A    between atoms: _123  and  _124
REMARK   52  A    between atoms: _123  and  _126
REMARK   53  A    between atoms: _126  and  _127
REMARK   54  A    between atoms: _133  and  _135
REMARK   55  A    between atoms: _135  and  _136
REMARK   56  A    between atoms: _135  and  _138
REMARK   57  A    between atoms: _138  and  _139
REMARK   58  A    between atoms: _144  and  _146
REMARK   59  A    between atoms: _146  and  _147
REMARK   60  A    between atoms: _146  and  _149
REMARK   61  A    between atoms: _149  and  _150
REMARK   62  A    between atoms: _152  and  _154
REMARK   63  A    between atoms: _154  and  _155
REMARK   64  A    between atoms: _154  and  _157
REMARK   65  A    between atoms: _157  and  _158
REMARK   66  A    between atoms: _163  and  _165
REMARK   67  A    between atoms: _165  and  _166
REMARK   68  A    between atoms: _168  and  _170
REMARK   69  A    between atoms: _170  and  _171
REMARK   70  A    between atoms: _173  and  _175
REMARK   71  A    between atoms: _175  and  _176
REMARK   72  A    between atoms: _175  and  _178
REMARK   73  A    between atoms: _178  and  _179
REMARK   74  A    between atoms: _182  and  _184
REMARK   75  A    between atoms: _184  and  _185
REMARK   76  A    between atoms: _184  and  _187
REMARK   77  A    between atoms: _187  and  _188
REMARK   78  A    between atoms: _193  and  _195
REMARK   79  A    between atoms: _195  and  _196
REMARK   80  A    between atoms: _195  and  _198
REMARK   81  A    between atoms: _198  and  _199
REMARK   82  A    between atoms: _199  and  _200
REMARK                            x       y       z     vdW  Elec       q    Type
REMARK                         _______ _______ _______ _____ _____    ______ ____
ROOT
ATOM      1  O   HOH     1      65.730  17.040  13.771  0.00  0.00    +0.000 OA
ENDROOT
TORSDOF 0
REMARK  Name = ../refined-set-2016/4ouj/4ouj_pocket.pdb
REMARK  82 active torsions:
REMARK  status: ('A' for Active; 'I' for Inactive)
REMARK    1  A    between atoms: _1  and  _3
REMARK    2  A    between atoms: _3  and  _4
REMARK    3  A    between atoms: _3  and  _6
REMARK    4  A    between atoms: _6  and  _7
REMARK    5  A    between atoms: _12  and  _14
REMARK    6  A    between atoms: _14  and  _15
REMARK    7  A    between atoms: _14  and  _17
REMARK    8  A    between atoms: _20  and  _22
REMARK    9  A    between atoms: _22  and  _23
REMARK   10  A    between atoms: _22  and  _25
REMARK   11  A    between atoms: _25  and  _26
REMARK   12  A    between atoms: _29  and  _31
REMARK   13  A    between atoms: _31  and  _32
REMARK   14  A    between atoms: _31  and  _34
REMARK   15  A    between atoms: _34  and  _35
REMARK   16  A    between atoms: _38  and  _40
REMARK   17  A    between atoms: _40  and  _41
REMARK   18  A    between atoms: _40  and  _43
REMARK   19  A    between atoms: _43  and  _44
REMARK   20  A    between atoms: _47  and  _49
REMARK   21  A    between atoms: _49  and  _50
REMARK   22  A    between atoms: _49  and  _52
REMARK   23  A    between atoms: _52  and  _53
REMARK   24  A    between atoms: _58  and  _59
REMARK   25  A    between atoms: _61  and  _63
REMARK   26  A    between atoms: _63  and  _64
REMARK   27  A    between atoms: _66  and  _68
REMARK   28  A    between atoms: _68  and  _69
REMARK   29  A    between atoms: _71  and  _73
REMARK   30  A    between atoms: _73  and  _74
REMARK   31  A    between atoms: _73  and  _76
REMARK   32  A    between atoms: _76  and  _77
REMARK   33  A    between atoms: _77  and  _78
REMARK   34  A    between atoms: _83  and  _85
REMARK   35  A    between atoms: _85  and  _86
REMARK   36  A    between atoms: _85  and  _88
REMARK   37  A    between atoms: _88  and  _89
REMARK   38  A    between atoms: _92  and  _94
REMARK   39  A    between atoms: _94  and  _95
REMARK   40  A    between atoms: _94  and  _97
REMARK   41  A    between atoms: _97  and  _98
REMARK   42  A    between atoms: _101  and  _103
REMARK   43  A    between atoms: _103  and  _104
REMARK   44  A    between atoms: _103  and  _106
REMARK   45  A    between atoms: _106  and  _107
REMARK   46  A    between atoms: _107  and  _108
REMARK   47  A    between atoms: _113  and  _115
REMARK   48  A    between atoms: _115  and  _116
REMARK   49  A    between atoms: _115  and  _118
REMARK   50  A    between atoms: _121  and  _123
REMARK   51  A    between atoms: _123  and  _124
REMARK   52  A    between atoms: _123  and  _126
REMARK   53  A    between atoms: _126  and  _127
REMARK   54  A    between atoms: _133  and  _135
REMARK   55  A    between atoms: _135  and  _136
REMARK   56  A    between atoms: _135  and  _138
REMARK   57  A    between atoms: _138  and  _139
REMARK   58  A    between atoms: _144  and  _146
REMARK   59  A    between atoms: _146  and  _147
REMARK   60  A    between atoms: _146  and  _149
REMARK   61  A    between atoms: _149  and  _150
REMARK   62  A    between atoms: _152  and  _154
REMARK   63  A    between atoms: _154  and  _155
REMARK   64  A    between atoms: _154  and  _157
REMARK   65  A    between atoms: _157  and  _158
REMARK   66  A    between atoms: _163  and  _165
REMARK   67  A    between atoms: _165  and  _166
REMARK   68  A    between atoms: _168  and  _170
REMARK   69  A    between atoms: _170  and  _171
REMARK   70  A    between atoms: _173  and  _175
REMARK   71  A    between atoms: _175  and  _176
REMARK   72  A    between atoms: _175  and  _178
REMARK   73  A    between atoms: _178  and  _179
REMARK   74  A    between atoms: _182  and  _184
REMARK   75  A    between atoms: _184  and  _185
REMARK   76  A    between atoms: _184  and  _187
REMARK   77  A    between atoms: _187  and  _188
REMARK   78  A    between atoms: _193  and  _195
REMARK   79  A    between atoms: _195  and  _196
REMARK   80  A    between atoms: _195  and  _198
REMARK   81  A    between atoms: _198  and  _199
REMARK   82  A    between atoms: _199  and  _200
REMARK                            x       y       z     vdW  Elec       q    Type
REMARK                         _______ _______ _______ _____ _____    ______ ____
ROOT
ATOM      1  O   HOH     1      59.617  16.563   9.928  0.00  0.00    +0.000 OA
ENDROOT
TORSDOF 0
REMARK  Name = ../refined-set-2016/4ouj/4ouj_pocket.pdb
REMARK  82 active torsions:
REMARK  status: ('A' for Active; 'I' for Inactive)
REMARK    1  A    between atoms: _1  and  _3
REMARK    2  A    between atoms: _3  and  _4
REMARK    3  A    between atoms: _3  and  _6
REMARK    4  A    between atoms: _6  and  _7
REMARK    5  A    between atoms: _12  and  _14
REMARK    6  A    between atoms: _14  and  _15
REMARK    7  A    between atoms: _14  and  _17
REMARK    8  A    between atoms: _20  and  _22
REMARK    9  A    between atoms: _22  and  _23
REMARK   10  A    between atoms: _22  and  _25
REMARK   11  A    between atoms: _25  and  _26
REMARK   12  A    between atoms: _29  and  _31
REMARK   13  A    between atoms: _31  and  _32
REMARK   14  A    between atoms: _31  and  _34
REMARK   15  A    between atoms: _34  and  _35
REMARK   16  A    between atoms: _38  and  _40
REMARK   17  A    between atoms: _40  and  _41
REMARK   18  A    between atoms: _40  and  _43
REMARK   19  A    between atoms: _43  and  _44
REMARK   20  A    between atoms: _47  and  _49
REMARK   21  A    between atoms: _49  and  _50
REMARK   22  A    between atoms: _49  and  _52
REMARK   23  A    between atoms: _52  and  _53
REMARK   24  A    between atoms: _58  and  _59
REMARK   25  A    between atoms: _61  and  _63
REMARK   26  A    between atoms: _63  and  _64
REMARK   27  A    between atoms: _66  and  _68
REMARK   28  A    between atoms: _68  and  _69
REMARK   29  A    between atoms: _71  and  _73
REMARK   30  A    between atoms: _73  and  _74
REMARK   31  A    between atoms: _73  and  _76
REMARK   32  A    between atoms: _76  and  _77
REMARK   33  A    between atoms: _77  and  _78
REMARK   34  A    between atoms: _83  and  _85
REMARK   35  A    between atoms: _85  and  _86
REMARK   36  A    between atoms: _85  and  _88
REMARK   37  A    between atoms: _88  and  _89
REMARK   38  A    between atoms: _92  and  _94
REMARK   39  A    between atoms: _94  and  _95
REMARK   40  A    between atoms: _94  and  _97
REMARK   41  A    between atoms: _97  and  _98
REMARK   42  A    between atoms: _101  and  _103
REMARK   43  A    between atoms: _103  and  _104
REMARK   44  A    between atoms: _103  and  _106
REMARK   45  A    between atoms: _106  and  _107
REMARK   46  A    between atoms: _107  and  _108
REMARK   47  A    between atoms: _113  and  _115
REMARK   48  A    between atoms: _115  and  _116
REMARK   49  A    between atoms: _115  and  _118
REMARK   50  A    between atoms: _121  and  _123
REMARK   51  A    between atoms: _123  and  _124
REMARK   52  A    between atoms: _123  and  _126
REMARK   53  A    between atoms: _126  and  _127
REMARK   54  A    between atoms: _133  and  _135
REMARK   55  A    between atoms: _135  and  _136
REMARK   56  A    between atoms: _135  and  _138
REMARK   57  A    between atoms: _138  and  _139
REMARK   58  A    between atoms: _144  and  _146
REMARK   59  A    between atoms: _146  and  _147
REMARK   60  A    between atoms: _146  and  _149
REMARK   61  A    between atoms: _149  and  _150
REMARK   62  A    between atoms: _152  and  _154
REMARK   63  A    between atoms: _154  and  _155
REMARK   64  A    between atoms: _154  and  _157
REMARK   65  A    between atoms: _157  and  _158
REMARK   66  A    between atoms: _163  and  _165
REMARK   67  A    between atoms: _165  and  _166
REMARK   68  A    between atoms: _168  and  _170
REMARK   69  A    between atoms: _170  and  _171
REMARK   70  A    between atoms: _173  and  _175
REMARK   71  A    between atoms: _175  and  _176
REMARK   72  A    between atoms: _175  and  _178
REMARK   73  A    between atoms: _178  and  _179
REMARK   74  A    between atoms: _182  and  _184
REMARK   75  A    between atoms: _184  and  _185
REMARK   76  A    between atoms: _184  and  _187
REMARK   77  A    between atoms: _187  and  _188
REMARK   78  A    between atoms: _193  and  _195
REMARK   79  A    between atoms: _195  and  _196
REMARK   80  A    between atoms: _195  and  _198
REMARK   81  A    between atoms: _198  and  _199
REMARK   82  A    between atoms: _199  and  _200
REMARK                            x       y       z     vdW  Elec       q    Type
REMARK                         _______ _______ _______ _____ _____    ______ ____
ROOT
ATOM      1  O   HOH     1      62.781   8.988   1.658  0.00  0.00    +0.000 OA
ENDROOT
TORSDOF 0
REMARK  Name = ../refined-set-2016/4ouj/4ouj_pocket.pdb
REMARK  82 active torsions:
REMARK  status: ('A' for Active; 'I' for Inactive)
REMARK    1  A    between atoms: _1  and  _3
REMARK    2  A    between atoms: _3  and  _4
REMARK    3  A    between atoms: _3  and  _6
REMARK    4  A    between atoms: _6  and  _7
REMARK    5  A    between atoms: _12  and  _14
REMARK    6  A    between atoms: _14  and  _15
REMARK    7  A    between atoms: _14  and  _17
REMARK    8  A    between atoms: _20  and  _22
REMARK    9  A    between atoms: _22  and  _23
REMARK   10  A    between atoms: _22  and  _25
REMARK   11  A    between atoms: _25  and  _26
REMARK   12  A    between atoms: _29  and  _31
REMARK   13  A    between atoms: _31  and  _32
REMARK   14  A    between atoms: _31  and  _34
REMARK   15  A    between atoms: _34  and  _35
REMARK   16  A    between atoms: _38  and  _40
REMARK   17  A    between atoms: _40  and  _41
REMARK   18  A    between atoms: _40  and  _43
REMARK   19  A    between atoms: _43  and  _44
REMARK   20  A    between atoms: _47  and  _49
REMARK   21  A    between atoms: _49  and  _50
REMARK   22  A    between atoms: _49  and  _52
REMARK   23  A    between atoms: _52  and  _53
REMARK   24  A    between atoms: _58  and  _59
REMARK   25  A    between atoms: _61  and  _63
REMARK   26  A    between atoms: _63  and  _64
REMARK   27  A    between atoms: _66  and  _68
REMARK   28  A    between atoms: _68  and  _69
REMARK   29  A    between atoms: _71  and  _73
REMARK   30  A    between atoms: _73  and  _74
REMARK   31  A    between atoms: _73  and  _76
REMARK   32  A    between atoms: _76  and  _77
REMARK   33  A    between atoms: _77  and  _78
REMARK   34  A    between atoms: _83  and  _85
REMARK   35  A    between atoms: _85  and  _86
REMARK   36  A    between atoms: _85  and  _88
REMARK   37  A    between atoms: _88  and  _89
REMARK   38  A    between atoms: _92  and  _94
REMARK   39  A    between atoms: _94  and  _95
REMARK   40  A    between atoms: _94  and  _97
REMARK   41  A    between atoms: _97  and  _98
REMARK   42  A    between atoms: _101  and  _103
REMARK   43  A    between atoms: _103  and  _104
REMARK   44  A    between atoms: _103  and  _106
REMARK   45  A    between atoms: _106  and  _107
REMARK   46  A    between atoms: _107  and  _108
REMARK   47  A    between atoms: _113  and  _115
REMARK   48  A    between atoms: _115  and  _116
REMARK   49  A    between atoms: _115  and  _118
REMARK   50  A    between atoms: _121  and  _123
REMARK   51  A    between atoms: _123  and  _124
REMARK   52  A    between atoms: _123  and  _126
REMARK   53  A    between atoms: _126  and  _127
REMARK   54  A    between atoms: _133  and  _135
REMARK   55  A    between atoms: _135  and  _136
REMARK   56  A    between atoms: _135  and  _138
REMARK   57  A    between atoms: _138  and  _139
REMARK   58  A    between atoms: _144  and  _146
REMARK   59  A    between atoms: _146  and  _147
REMARK   60  A    between atoms: _146  and  _149
REMARK   61  A    between atoms: _149  and  _150
REMARK   62  A    between atoms: _152  and  _154
REMARK   63  A    between atoms: _154  and  _155
REMARK   64  A    between atoms: _154  and  _157
REMARK   65  A    between atoms: _157  and  _158
REMARK   66  A    between atoms: _163  and  _165
REMARK   67  A    between atoms: _165  and  _166
REMARK   68  A    between atoms: _168  and  _170
REMARK   69  A    between atoms: _170  and  _171
REMARK   70  A    between atoms: _173  and  _175
REMARK   71  A    between atoms: _175  and  _176
REMARK   72  A    between atoms: _175  and  _178
REMARK   73  A    between atoms: _178  and  _179
REMARK   74  A    between atoms: _182  and  _184
REMARK   75  A    between atoms: _184  and  _185
REMARK   76  A    between atoms: _184  and  _187
REMARK   77  A    between atoms: _187  and  _188
REMARK   78  A    between atoms: _193  and  _195
REMARK   79  A    between atoms: _195  and  _196
REMARK   80  A    between atoms: _195  and  _198
REMARK   81  A    between atoms: _198  and  _199
REMARK   82  A    between atoms: _199  and  _200
REMARK                            x       y       z     vdW  Elec       q    Type
REMARK                         _______ _______ _______ _____ _____    ______ ____
ROOT
ATOM      1  O   UNL     1      63.839  18.522   5.465  0.00  0.00    +0.000 OA
ATOM      2  O   UNL     1      65.039  18.892   4.303  0.00  0.00    +0.000 OA
ENDROOT
TORSDOF 0
REMARK  Name = ../refined-set-2016/4ouj/4ouj_pocket.pdb
REMARK  82 active torsions:
REMARK  status: ('A' for Active; 'I' for Inactive)
REMARK    1  A    between atoms: _1  and  _3
REMARK    2  A    between atoms: _3  and  _4
REMARK    3  A    between atoms: _3  and  _6
REMARK    4  A    between atoms: _6  and  _7
REMARK    5  A    between atoms: _12  and  _14
REMARK    6  A    between atoms: _14  and  _15
REMARK    7  A    between atoms: _14  and  _17
REMARK    8  A    between atoms: _20  and  _22
REMARK    9  A    between atoms: _22  and  _23
REMARK   10  A    between atoms: _22  and  _25
REMARK   11  A    between atoms: _25  and  _26
REMARK   12  A    between atoms: _29  and  _31
REMARK   13  A    between atoms: _31  and  _32
REMARK   14  A    between atoms: _31  and  _34
REMARK   15  A    between atoms: _34  and  _35
REMARK   16  A    between atoms: _38  and  _40
REMARK   17  A    between atoms: _40  and  _41
REMARK   18  A    between atoms: _40  and  _43
REMARK   19  A    between atoms: _43  and  _44
REMARK   20  A    between atoms: _47  and  _49
REMARK   21  A    between atoms: _49  and  _50
REMARK   22  A    between atoms: _49  and  _52
REMARK   23  A    between atoms: _52  and  _53
REMARK   24  A    between atoms: _58  and  _59
REMARK   25  A    between atoms: _61  and  _63
REMARK   26  A    between atoms: _63  and  _64
REMARK   27  A    between atoms: _66  and  _68
REMARK   28  A    between atoms: _68  and  _69
REMARK   29  A    between atoms: _71  and  _73
REMARK   30  A    between atoms: _73  and  _74
REMARK   31  A    between atoms: _73  and  _76
REMARK   32  A    between atoms: _76  and  _77
REMARK   33  A    between atoms: _77  and  _78
REMARK   34  A    between atoms: _83  and  _85
REMARK   35  A    between atoms: _85  and  _86
REMARK   36  A    between atoms: _85  and  _88
REMARK   37  A    between atoms: _88  and  _89
REMARK   38  A    between atoms: _92  and  _94
REMARK   39  A    between atoms: _94  and  _95
REMARK   40  A    between atoms: _94  and  _97
REMARK   41  A    between atoms: _97  and  _98
REMARK   42  A    between atoms: _101  and  _103
REMARK   43  A    between atoms: _103  and  _104
REMARK   44  A    between atoms: _103  and  _106
REMARK   45  A    between atoms: _106  and  _107
REMARK   46  A    between atoms: _107  and  _108
REMARK   47  A    between atoms: _113  and  _115
REMARK   48  A    between atoms: _115  and  _116
REMARK   49  A    between atoms: _115  and  _118
REMARK   50  A    between atoms: _121  and  _123
REMARK   51  A    between atoms: _123  and  _124
REMARK   52  A    between atoms: _123  and  _126
REMARK   53  A    between atoms: _126  and  _127
REMARK   54  A    between atoms: _133  and  _135
REMARK   55  A    between atoms: _135  and  _136
REMARK   56  A    between atoms: _135  and  _138
REMARK   57  A    between atoms: _138  and  _139
REMARK   58  A    between atoms: _144  and  _146
REMARK   59  A    between atoms: _146  and  _147
REMARK   60  A    between atoms: _146  and  _149
REMARK   61  A    between atoms: _149  and  _150
REMARK   62  A    between atoms: _152  and  _154
REMARK   63  A    between atoms: _154  and  _155
REMARK   64  A    between atoms: _154  and  _157
REMARK   65  A    between atoms: _157  and  _158
REMARK   66  A    between atoms: _163  and  _165
REMARK   67  A    between atoms: _165  and  _166
REMARK   68  A    between atoms: _168  and  _170
REMARK   69  A    between atoms: _170  and  _171
REMARK   70  A    between atoms: _173  and  _175
REMARK   71  A    between atoms: _175  and  _176
REMARK   72  A    between atoms: _175  and  _178
REMARK   73  A    between atoms: _178  and  _179
REMARK   74  A    between atoms: _182  and  _184
REMARK   75  A    between atoms: _184  and  _185
REMARK   76  A    between atoms: _184  and  _187
REMARK   77  A    between atoms: _187  and  _188
REMARK   78  A    between atoms: _193  and  _195
REMARK   79  A    between atoms: _195  and  _196
REMARK   80  A    between atoms: _195  and  _198
REMARK   81  A    between atoms: _198  and  _199
REMARK   82  A    between atoms: _199  and  _200
REMARK                            x       y       z     vdW  Elec       q    Type
REMARK                         _______ _______ _______ _____ _____    ______ ____
ROOT
ATOM      1  O   HOH     1      67.981  12.663   3.422  0.00  0.00    +0.000 OA
ENDROOT
TORSDOF 0
REMARK  Name = ../refined-set-2016/4ouj/4ouj_pocket.pdb
REMARK  82 active torsions:
REMARK  status: ('A' for Active; 'I' for Inactive)
REMARK    1  A    between atoms: _1  and  _3
REMARK    2  A    between atoms: _3  and  _4
REMARK    3  A    between atoms: _3  and  _6
REMARK    4  A    between atoms: _6  and  _7
REMARK    5  A    between atoms: _12  and  _14
REMARK    6  A    between atoms: _14  and  _15
REMARK    7  A    between atoms: _14  and  _17
REMARK    8  A    between atoms: _20  and  _22
REMARK    9  A    between atoms: _22  and  _23
REMARK   10  A    between atoms: _22  and  _25
REMARK   11  A    between atoms: _25  and  _26
REMARK   12  A    between atoms: _29  and  _31
REMARK   13  A    between atoms: _31  and  _32
REMARK   14  A    between atoms: _31  and  _34
REMARK   15  A    between atoms: _34  and  _35
REMARK   16  A    between atoms: _38  and  _40
REMARK   17  A    between atoms: _40  and  _41
REMARK   18  A    between atoms: _40  and  _43
REMARK   19  A    between atoms: _43  and  _44
REMARK   20  A    between atoms: _47  and  _49
REMARK   21  A    between atoms: _49  and  _50
REMARK   22  A    between atoms: _49  and  _52
REMARK   23  A    between atoms: _52  and  _53
REMARK   24  A    between atoms: _58  and  _59
REMARK   25  A    between atoms: _61  and  _63
REMARK   26  A    between atoms: _63  and  _64
REMARK   27  A    between atoms: _66  and  _68
REMARK   28  A    between atoms: _68  and  _69
REMARK   29  A    between atoms: _71  and  _73
REMARK   30  A    between atoms: _73  and  _74
REMARK   31  A    between atoms: _73  and  _76
REMARK   32  A    between atoms: _76  and  _77
REMARK   33  A    between atoms: _77  and  _78
REMARK   34  A    between atoms: _83  and  _85
REMARK   35  A    between atoms: _85  and  _86
REMARK   36  A    between atoms: _85  and  _88
REMARK   37  A    between atoms: _88  and  _89
REMARK   38  A    between atoms: _92  and  _94
REMARK   39  A    between atoms: _94  and  _95
REMARK   40  A    between atoms: _94  and  _97
REMARK   41  A    between atoms: _97  and  _98
REMARK   42  A    between atoms: _101  and  _103
REMARK   43  A    between atoms: _103  and  _104
REMARK   44  A    between atoms: _103  and  _106
REMARK   45  A    between atoms: _106  and  _107
REMARK   46  A    between atoms: _107  and  _108
REMARK   47  A    between atoms: _113  and  _115
REMARK   48  A    between atoms: _115  and  _116
REMARK   49  A    between atoms: _115  and  _118
REMARK   50  A    between atoms: _121  and  _123
REMARK   51  A    between atoms: _123  and  _124
REMARK   52  A    between atoms: _123  and  _126
REMARK   53  A    between atoms: _126  and  _127
REMARK   54  A    between atoms: _133  and  _135
REMARK   55  A    between atoms: _135  and  _136
REMARK   56  A    between atoms: _135  and  _138
REMARK   57  A    between atoms: _138  and  _139
REMARK   58  A    between atoms: _144  and  _146
REMARK   59  A    between atoms: _146  and  _147
REMARK   60  A    between atoms: _146  and  _149
REMARK   61  A    between atoms: _149  and  _150
REMARK   62  A    between atoms: _152  and  _154
REMARK   63  A    between atoms: _154  and  _155
REMARK   64  A    between atoms: _154  and  _157
REMARK   65  A    between atoms: _157  and  _158
REMARK   66  A    between atoms: _163  and  _165
REMARK   67  A    between atoms: _165  and  _166
REMARK   68  A    between atoms: _168  and  _170
REMARK   69  A    between atoms: _170  and  _171
REMARK   70  A    between atoms: _173  and  _175
REMARK   71  A    between atoms: _175  and  _176
REMARK   72  A    between atoms: _175  and  _178
REMARK   73  A    between atoms: _178  and  _179
REMARK   74  A    between atoms: _182  and  _184
REMARK   75  A    between atoms: _184  and  _185
REMARK   76  A    between atoms: _184  and  _187
REMARK   77  A    between atoms: _187  and  _188
REMARK   78  A    between atoms: _193  and  _195
REMARK   79  A    between atoms: _195  and  _196
REMARK   80  A    between atoms: _195  and  _198
REMARK   81  A    between atoms: _198  and  _199
REMARK   82  A    between atoms: _199  and  _200
REMARK                            x       y       z     vdW  Elec       q    Type
REMARK                         _______ _______ _______ _____ _____    ______ ____
ROOT
ATOM      1  O   HOH     1      62.419  22.440   9.326  0.00  0.00    +0.000 OA
ENDROOT
TORSDOF 0
REMARK  Name = ../refined-set-2016/4ouj/4ouj_pocket.pdb
REMARK  82 active torsions:
REMARK  status: ('A' for Active; 'I' for Inactive)
REMARK    1  A    between atoms: _1  and  _3
REMARK    2  A    between atoms: _3  and  _4
REMARK    3  A    between atoms: _3  and  _6
REMARK    4  A    between atoms: _6  and  _7
REMARK    5  A    between atoms: _12  and  _14
REMARK    6  A    between atoms: _14  and  _15
REMARK    7  A    between atoms: _14  and  _17
REMARK    8  A    between atoms: _20  and  _22
REMARK    9  A    between atoms: _22  and  _23
REMARK   10  A    between atoms: _22  and  _25
REMARK   11  A    between atoms: _25  and  _26
REMARK   12  A    between atoms: _29  and  _31
REMARK   13  A    between atoms: _31  and  _32
REMARK   14  A    between atoms: _31  and  _34
REMARK   15  A    between atoms: _34  and  _35
REMARK   16  A    between atoms: _38  and  _40
REMARK   17  A    between atoms: _40  and  _41
REMARK   18  A    between atoms: _40  and  _43
REMARK   19  A    between atoms: _43  and  _44
REMARK   20  A    between atoms: _47  and  _49
REMARK   21  A    between atoms: _49  and  _50
REMARK   22  A    between atoms: _49  and  _52
REMARK   23  A    between atoms: _52  and  _53
REMARK   24  A    between atoms: _58  and  _59
REMARK   25  A    between atoms: _61  and  _63
REMARK   26  A    between atoms: _63  and  _64
REMARK   27  A    between atoms: _66  and  _68
REMARK   28  A    between atoms: _68  and  _69
REMARK   29  A    between atoms: _71  and  _73
REMARK   30  A    between atoms: _73  and  _74
REMARK   31  A    between atoms: _73  and  _76
REMARK   32  A    between atoms: _76  and  _77
REMARK   33  A    between atoms: _77  and  _78
REMARK   34  A    between atoms: _83  and  _85
REMARK   35  A    between atoms: _85  and  _86
REMARK   36  A    between atoms: _85  and  _88
REMARK   37  A    between atoms: _88  and  _89
REMARK   38  A    between atoms: _92  and  _94
REMARK   39  A    between atoms: _94  and  _95
REMARK   40  A    between atoms: _94  and  _97
REMARK   41  A    between atoms: _97  and  _98
REMARK   42  A    between atoms: _101  and  _103
REMARK   43  A    between atoms: _103  and  _104
REMARK   44  A    between atoms: _103  and  _106
REMARK   45  A    between atoms: _106  and  _107
REMARK   46  A    between atoms: _107  and  _108
REMARK   47  A    between atoms: _113  and  _115
REMARK   48  A    between atoms: _115  and  _116
REMARK   49  A    between atoms: _115  and  _118
REMARK   50  A    between atoms: _121  and  _123
REMARK   51  A    between atoms: _123  and  _124
REMARK   52  A    between atoms: _123  and  _126
REMARK   53  A    between atoms: _126  and  _127
REMARK   54  A    between atoms: _133  and  _135
REMARK   55  A    between atoms: _135  and  _136
REMARK   56  A    between atoms: _135  and  _138
REMARK   57  A    between atoms: _138  and  _139
REMARK   58  A    between atoms: _144  and  _146
REMARK   59  A    between atoms: _146  and  _147
REMARK   60  A    between atoms: _146  and  _149
REMARK   61  A    between atoms: _149  and  _150
REMARK   62  A    between atoms: _152  and  _154
REMARK   63  A    between atoms: _154  and  _155
REMARK   64  A    between atoms: _154  and  _157
REMARK   65  A    between atoms: _157  and  _158
REMARK   66  A    between atoms: _163  and  _165
REMARK   67  A    between atoms: _165  and  _166
REMARK   68  A    between atoms: _168  and  _170
REMARK   69  A    between atoms: _170  and  _171
REMARK   70  A    between atoms: _173  and  _175
REMARK   71  A    between atoms: _175  and  _176
REMARK   72  A    between atoms: _175  and  _178
REMARK   73  A    between atoms: _178  and  _179
REMARK   74  A    between atoms: _182  and  _184
REMARK   75  A    between atoms: _184  and  _185
REMARK   76  A    between atoms: _184  and  _187
REMARK   77  A    between atoms: _187  and  _188
REMARK   78  A    between atoms: _193  and  _195
REMARK   79  A    between atoms: _195  and  _196
REMARK   80  A    between atoms: _195  and  _198
REMARK   81  A    between atoms: _198  and  _199
REMARK   82  A    between atoms: _199  and  _200
REMARK                            x       y       z     vdW  Elec       q    Type
REMARK                         _______ _______ _______ _____ _____    ______ ____
ROOT
ATOM      1  O   HOH     1      65.383  12.997   0.651  0.00  0.00    +0.000 OA
ENDROOT
TORSDOF 0
REMARK  Name = ../refined-set-2016/4ouj/4ouj_pocket.pdb
REMARK  82 active torsions:
REMARK  status: ('A' for Active; 'I' for Inactive)
REMARK    1  A    between atoms: _1  and  _3
REMARK    2  A    between atoms: _3  and  _4
REMARK    3  A    between atoms: _3  and  _6
REMARK    4  A    between atoms: _6  and  _7
REMARK    5  A    between atoms: _12  and  _14
REMARK    6  A    between atoms: _14  and  _15
REMARK    7  A    between atoms: _14  and  _17
REMARK    8  A    between atoms: _20  and  _22
REMARK    9  A    between atoms: _22  and  _23
REMARK   10  A    between atoms: _22  and  _25
REMARK   11  A    between atoms: _25  and  _26
REMARK   12  A    between atoms: _29  and  _31
REMARK   13  A    between atoms: _31  and  _32
REMARK   14  A    between atoms: _31  and  _34
REMARK   15  A    between atoms: _34  and  _35
REMARK   16  A    between atoms: _38  and  _40
REMARK   17  A    between atoms: _40  and  _41
REMARK   18  A    between atoms: _40  and  _43
REMARK   19  A    between atoms: _43  and  _44
REMARK   20  A    between atoms: _47  and  _49
REMARK   21  A    between atoms: _49  and  _50
REMARK   22  A    between atoms: _49  and  _52
REMARK   23  A    between atoms: _52  and  _53
REMARK   24  A    between atoms: _58  and  _59
REMARK   25  A    between atoms: _61  and  _63
REMARK   26  A    between atoms: _63  and  _64
REMARK   27  A    between atoms: _66  and  _68
REMARK   28  A    between atoms: _68  and  _69
REMARK   29  A    between atoms: _71  and  _73
REMARK   30  A    between atoms: _73  and  _74
REMARK   31  A    between atoms: _73  and  _76
REMARK   32  A    between atoms: _76  and  _77
REMARK   33  A    between atoms: _77  and  _78
REMARK   34  A    between atoms: _83  and  _85
REMARK   35  A    between atoms: _85  and  _86
REMARK   36  A    between atoms: _85  and  _88
REMARK   37  A    between atoms: _88  and  _89
REMARK   38  A    between atoms: _92  and  _94
REMARK   39  A    between atoms: _94  and  _95
REMARK   40  A    between atoms: _94  and  _97
REMARK   41  A    between atoms: _97  and  _98
REMARK   42  A    between atoms: _101  and  _103
REMARK   43  A    between atoms: _103  and  _104
REMARK   44  A    between atoms: _103  and  _106
REMARK   45  A    between atoms: _106  and  _107
REMARK   46  A    between atoms: _107  and  _108
REMARK   47  A    between atoms: _113  and  _115
REMARK   48  A    between atoms: _115  and  _116
REMARK   49  A    between atoms: _115  and  _118
REMARK   50  A    between atoms: _121  and  _123
REMARK   51  A    between atoms: _123  and  _124
REMARK   52  A    between atoms: _123  and  _126
REMARK   53  A    between atoms: _126  and  _127
REMARK   54  A    between atoms: _133  and  _135
REMARK   55  A    between atoms: _135  and  _136
REMARK   56  A    between atoms: _135  and  _138
REMARK   57  A    between atoms: _138  and  _139
REMARK   58  A    between atoms: _144  and  _146
REMARK   59  A    between atoms: _146  and  _147
REMARK   60  A    between atoms: _146  and  _149
REMARK   61  A    between atoms: _149  and  _150
REMARK   62  A    between atoms: _152  and  _154
REMARK   63  A    between atoms: _154  and  _155
REMARK   64  A    between atoms: _154  and  _157
REMARK   65  A    between atoms: _157  and  _158
REMARK   66  A    between atoms: _163  and  _165
REMARK   67  A    between atoms: _165  and  _166
REMARK   68  A    between atoms: _168  and  _170
REMARK   69  A    between atoms: _170  and  _171
REMARK   70  A    between atoms: _173  and  _175
REMARK   71  A    between atoms: _175  and  _176
REMARK   72  A    between atoms: _175  and  _178
REMARK   73  A    between atoms: _178  and  _179
REMARK   74  A    between atoms: _182  and  _184
REMARK   75  A    between atoms: _184  and  _185
REMARK   76  A    between atoms: _184  and  _187
REMARK   77  A    between atoms: _187  and  _188
REMARK   78  A    between atoms: _193  and  _195
REMARK   79  A    between atoms: _195  and  _196
REMARK   80  A    between atoms: _195  and  _198
REMARK   81  A    between atoms: _198  and  _199
REMARK   82  A    between atoms: _199  and  _200
REMARK                            x       y       z     vdW  Elec       q    Type
REMARK                         _______ _______ _______ _____ _____    ______ ____
ROOT
ATOM      1  O   HOH     1      61.050  11.166   0.951  0.00  0.00    +0.000 OA
ENDROOT
TORSDOF 0
REMARK  Name = ../refined-set-2016/4ouj/4ouj_pocket.pdb
REMARK  82 active torsions:
REMARK  status: ('A' for Active; 'I' for Inactive)
REMARK    1  A    between atoms: _1  and  _3
REMARK    2  A    between atoms: _3  and  _4
REMARK    3  A    between atoms: _3  and  _6
REMARK    4  A    between atoms: _6  and  _7
REMARK    5  A    between atoms: _12  and  _14
REMARK    6  A    between atoms: _14  and  _15
REMARK    7  A    between atoms: _14  and  _17
REMARK    8  A    between atoms: _20  and  _22
REMARK    9  A    between atoms: _22  and  _23
REMARK   10  A    between atoms: _22  and  _25
REMARK   11  A    between atoms: _25  and  _26
REMARK   12  A    between atoms: _29  and  _31
REMARK   13  A    between atoms: _31  and  _32
REMARK   14  A    between atoms: _31  and  _34
REMARK   15  A    between atoms: _34  and  _35
REMARK   16  A    between atoms: _38  and  _40
REMARK   17  A    between atoms: _40  and  _41
REMARK   18  A    between atoms: _40  and  _43
REMARK   19  A    between atoms: _43  and  _44
REMARK   20  A    between atoms: _47  and  _49
REMARK   21  A    between atoms: _49  and  _50
REMARK   22  A    between atoms: _49  and  _52
REMARK   23  A    between atoms: _52  and  _53
REMARK   24  A    between atoms: _58  and  _59
REMARK   25  A    between atoms: _61  and  _63
REMARK   26  A    between atoms: _63  and  _64
REMARK   27  A    between atoms: _66  and  _68
REMARK   28  A    between atoms: _68  and  _69
REMARK   29  A    between atoms: _71  and  _73
REMARK   30  A    between atoms: _73  and  _74
REMARK   31  A    between atoms: _73  and  _76
REMARK   32  A    between atoms: _76  and  _77
REMARK   33  A    between atoms: _77  and  _78
REMARK   34  A    between atoms: _83  and  _85
REMARK   35  A    between atoms: _85  and  _86
REMARK   36  A    between atoms: _85  and  _88
REMARK   37  A    between atoms: _88  and  _89
REMARK   38  A    between atoms: _92  and  _94
REMARK   39  A    between atoms: _94  and  _95
REMARK   40  A    between atoms: _94  and  _97
REMARK   41  A    between atoms: _97  and  _98
REMARK   42  A    between atoms: _101  and  _103
REMARK   43  A    between atoms: _103  and  _104
REMARK   44  A    between atoms: _103  and  _106
REMARK   45  A    between atoms: _106  and  _107
REMARK   46  A    between atoms: _107  and  _108
REMARK   47  A    between atoms: _113  and  _115
REMARK   48  A    between atoms: _115  and  _116
REMARK   49  A    between atoms: _115  and  _118
REMARK   50  A    between atoms: _121  and  _123
REMARK   51  A    between atoms: _123  and  _124
REMARK   52  A    between atoms: _123  and  _126
REMARK   53  A    between atoms: _126  and  _127
REMARK   54  A    between atoms: _133  and  _135
REMARK   55  A    between atoms: _135  and  _136
REMARK   56  A    between atoms: _135  and  _138
REMARK   57  A    between atoms: _138  and  _139
REMARK   58  A    between atoms: _144  and  _146
REMARK   59  A    between atoms: _146  and  _147
REMARK   60  A    between atoms: _146  and  _149
REMARK   61  A    between atoms: _149  and  _150
REMARK   62  A    between atoms: _152  and  _154
REMARK   63  A    between atoms: _154  and  _155
REMARK   64  A    between atoms: _154  and  _157
REMARK   65  A    between atoms: _157  and  _158
REMARK   66  A    between atoms: _163  and  _165
REMARK   67  A    between atoms: _165  and  _166
REMARK   68  A    between atoms: _168  and  _170
REMARK   69  A    between atoms: _170  and  _171
REMARK   70  A    between atoms: _173  and  _175
REMARK   71  A    between atoms: _175  and  _176
REMARK   72  A    between atoms: _175  and  _178
REMARK   73  A    between atoms: _178  and  _179
REMARK   74  A    between atoms: _182  and  _184
REMARK   75  A    between atoms: _184  and  _185
REMARK   76  A    between atoms: _184  and  _187
REMARK   77  A    between atoms: _187  and  _188
REMARK   78  A    between atoms: _193  and  _195
REMARK   79  A    between atoms: _195  and  _196
REMARK   80  A    between atoms: _195  and  _198
REMARK   81  A    between atoms: _198  and  _199
REMARK   82  A    between atoms: _199  and  _200
REMARK                            x       y       z     vdW  Elec       q    Type
REMARK                         _______ _______ _______ _____ _____    ______ ____
ROOT
ATOM      1  O   HOH     1      56.303  15.052  12.368  0.00  0.00    +0.000 OA
ENDROOT
TORSDOF 0
REMARK  Name = ../refined-set-2016/4ouj/4ouj_pocket.pdb
REMARK  82 active torsions:
REMARK  status: ('A' for Active; 'I' for Inactive)
REMARK    1  A    between atoms: _1  and  _3
REMARK    2  A    between atoms: _3  and  _4
REMARK    3  A    between atoms: _3  and  _6
REMARK    4  A    between atoms: _6  and  _7
REMARK    5  A    between atoms: _12  and  _14
REMARK    6  A    between atoms: _14  and  _15
REMARK    7  A    between atoms: _14  and  _17
REMARK    8  A    between atoms: _20  and  _22
REMARK    9  A    between atoms: _22  and  _23
REMARK   10  A    between atoms: _22  and  _25
REMARK   11  A    between atoms: _25  and  _26
REMARK   12  A    between atoms: _29  and  _31
REMARK   13  A    between atoms: _31  and  _32
REMARK   14  A    between atoms: _31  and  _34
REMARK   15  A    between atoms: _34  and  _35
REMARK   16  A    between atoms: _38  and  _40
REMARK   17  A    between atoms: _40  and  _41
REMARK   18  A    between atoms: _40  and  _43
REMARK   19  A    between atoms: _43  and  _44
REMARK   20  A    between atoms: _47  and  _49
REMARK   21  A    between atoms: _49  and  _50
REMARK   22  A    between atoms: _49  and  _52
REMARK   23  A    between atoms: _52  and  _53
REMARK   24  A    between atoms: _58  and  _59
REMARK   25  A    between atoms: _61  and  _63
REMARK   26  A    between atoms: _63  and  _64
REMARK   27  A    between atoms: _66  and  _68
REMARK   28  A    between atoms: _68  and  _69
REMARK   29  A    between atoms: _71  and  _73
REMARK   30  A    between atoms: _73  and  _74
REMARK   31  A    between atoms: _73  and  _76
REMARK   32  A    between atoms: _76  and  _77
REMARK   33  A    between atoms: _77  and  _78
REMARK   34  A    between atoms: _83  and  _85
REMARK   35  A    between atoms: _85  and  _86
REMARK   36  A    between atoms: _85  and  _88
REMARK   37  A    between atoms: _88  and  _89
REMARK   38  A    between atoms: _92  and  _94
REMARK   39  A    between atoms: _94  and  _95
REMARK   40  A    between atoms: _94  and  _97
REMARK   41  A    between atoms: _97  and  _98
REMARK   42  A    between atoms: _101  and  _103
REMARK   43  A    between atoms: _103  and  _104
REMARK   44  A    between atoms: _103  and  _106
REMARK   45  A    between atoms: _106  and  _107
REMARK   46  A    between atoms: _107  and  _108
REMARK   47  A    between atoms: _113  and  _115
REMARK   48  A    between atoms: _115  and  _116
REMARK   49  A    between atoms: _115  and  _118
REMARK   50  A    between atoms: _121  and  _123
REMARK   51  A    between atoms: _123  and  _124
REMARK   52  A    between atoms: _123  and  _126
REMARK   53  A    between atoms: _126  and  _127
REMARK   54  A    between atoms: _133  and  _135
REMARK   55  A    between atoms: _135  and  _136
REMARK   56  A    between atoms: _135  and  _138
REMARK   57  A    between atoms: _138  and  _139
REMARK   58  A    between atoms: _144  and  _146
REMARK   59  A    between atoms: _146  and  _147
REMARK   60  A    between atoms: _146  and  _149
REMARK   61  A    between atoms: _149  and  _150
REMARK   62  A    between atoms: _152  and  _154
REMARK   63  A    between atoms: _154  and  _155
REMARK   64  A    between atoms: _154  and  _157
REMARK   65  A    between atoms: _157  and  _158
REMARK   66  A    between atoms: _163  and  _165
REMARK   67  A    between atoms: _165  and  _166
REMARK   68  A    between atoms: _168  and  _170
REMARK   69  A    between atoms: _170  and  _171
REMARK   70  A    between atoms: _173  and  _175
REMARK   71  A    between atoms: _175  and  _176
REMARK   72  A    between atoms: _175  and  _178
REMARK   73  A    between atoms: _178  and  _179
REMARK   74  A    between atoms: _182  and  _184
REMARK   75  A    between atoms: _184  and  _185
REMARK   76  A    between atoms: _184  and  _187
REMARK   77  A    between atoms: _187  and  _188
REMARK   78  A    between atoms: _193  and  _195
REMARK   79  A    between atoms: _195  and  _196
REMARK   80  A    between atoms: _195  and  _198
REMARK   81  A    between atoms: _198  and  _199
REMARK   82  A    between atoms: _199  and  _200
REMARK                            x       y       z     vdW  Elec       q    Type
REMARK                         _______ _______ _______ _____ _____    ______ ____
ROOT
ATOM      1  O   HOH     1      59.160   9.863  -0.437  0.00  0.00    +0.000 OA
ENDROOT
TORSDOF 0
REMARK  Name = ../refined-set-2016/4ouj/4ouj_pocket.pdb
REMARK  82 active torsions:
REMARK  status: ('A' for Active; 'I' for Inactive)
REMARK    1  A    between atoms: _1  and  _3
REMARK    2  A    between atoms: _3  and  _4
REMARK    3  A    between atoms: _3  and  _6
REMARK    4  A    between atoms: _6  and  _7
REMARK    5  A    between atoms: _12  and  _14
REMARK    6  A    between atoms: _14  and  _15
REMARK    7  A    between atoms: _14  and  _17
REMARK    8  A    between atoms: _20  and  _22
REMARK    9  A    between atoms: _22  and  _23
REMARK   10  A    between atoms: _22  and  _25
REMARK   11  A    between atoms: _25  and  _26
REMARK   12  A    between atoms: _29  and  _31
REMARK   13  A    between atoms: _31  and  _32
REMARK   14  A    between atoms: _31  and  _34
REMARK   15  A    between atoms: _34  and  _35
REMARK   16  A    between atoms: _38  and  _40
REMARK   17  A    between atoms: _40  and  _41
REMARK   18  A    between atoms: _40  and  _43
REMARK   19  A    between atoms: _43  and  _44
REMARK   20  A    between atoms: _47  and  _49
REMARK   21  A    between atoms: _49  and  _50
REMARK   22  A    between atoms: _49  and  _52
REMARK   23  A    between atoms: _52  and  _53
REMARK   24  A    between atoms: _58  and  _59
REMARK   25  A    between atoms: _61  and  _63
REMARK   26  A    between atoms: _63  and  _64
REMARK   27  A    between atoms: _66  and  _68
REMARK   28  A    between atoms: _68  and  _69
REMARK   29  A    between atoms: _71  and  _73
REMARK   30  A    between atoms: _73  and  _74
REMARK   31  A    between atoms: _73  and  _76
REMARK   32  A    between atoms: _76  and  _77
REMARK   33  A    between atoms: _77  and  _78
REMARK   34  A    between atoms: _83  and  _85
REMARK   35  A    between atoms: _85  and  _86
REMARK   36  A    between atoms: _85  and  _88
REMARK   37  A    between atoms: _88  and  _89
REMARK   38  A    between atoms: _92  and  _94
REMARK   39  A    between atoms: _94  and  _95
REMARK   40  A    between atoms: _94  and  _97
REMARK   41  A    between atoms: _97  and  _98
REMARK   42  A    between atoms: _101  and  _103
REMARK   43  A    between atoms: _103  and  _104
REMARK   44  A    between atoms: _103  and  _106
REMARK   45  A    between atoms: _106  and  _107
REMARK   46  A    between atoms: _107  and  _108
REMARK   47  A    between atoms: _113  and  _115
REMARK   48  A    between atoms: _115  and  _116
REMARK   49  A    between atoms: _115  and  _118
REMARK   50  A    between atoms: _121  and  _123
REMARK   51  A    between atoms: _123  and  _124
REMARK   52  A    between atoms: _123  and  _126
REMARK   53  A    between atoms: _126  and  _127
REMARK   54  A    between atoms: _133  and  _135
REMARK   55  A    between atoms: _135  and  _136
REMARK   56  A    between atoms: _135  and  _138
REMARK   57  A    between atoms: _138  and  _139
REMARK   58  A    between atoms: _144  and  _146
REMARK   59  A    between atoms: _146  and  _147
REMARK   60  A    between atoms: _146  and  _149
REMARK   61  A    between atoms: _149  and  _150
REMARK   62  A    between atoms: _152  and  _154
REMARK   63  A    between atoms: _154  and  _155
REMARK   64  A    between atoms: _154  and  _157
REMARK   65  A    between atoms: _157  and  _158
REMARK   66  A    between atoms: _163  and  _165
REMARK   67  A    between atoms: _165  and  _166
REMARK   68  A    between atoms: _168  and  _170
REMARK   69  A    between atoms: _170  and  _171
REMARK   70  A    between atoms: _173  and  _175
REMARK   71  A    between atoms: _175  and  _176
REMARK   72  A    between atoms: _175  and  _178
REMARK   73  A    between atoms: _178  and  _179
REMARK   74  A    between atoms: _182  and  _184
REMARK   75  A    between atoms: _184  and  _185
REMARK   76  A    between atoms: _184  and  _187
REMARK   77  A    between atoms: _187  and  _188
REMARK   78  A    between atoms: _193  and  _195
REMARK   79  A    between atoms: _195  and  _196
REMARK   80  A    between atoms: _195  and  _198
REMARK   81  A    between atoms: _198  and  _199
REMARK   82  A    between atoms: _199  and  _200
REMARK                            x       y       z     vdW  Elec       q    Type
REMARK                         _______ _______ _______ _____ _____    ______ ____
ROOT
ATOM      1  O   HOH     1      66.377  14.605   3.018  0.00  0.00    +0.000 OA
ENDROOT
TORSDOF 0
REMARK  Name = ../refined-set-2016/4ouj/4ouj_pocket.pdb
REMARK  82 active torsions:
REMARK  status: ('A' for Active; 'I' for Inactive)
REMARK    1  A    between atoms: _1  and  _3
REMARK    2  A    between atoms: _3  and  _4
REMARK    3  A    between atoms: _3  and  _6
REMARK    4  A    between atoms: _6  and  _7
REMARK    5  A    between atoms: _12  and  _14
REMARK    6  A    between atoms: _14  and  _15
REMARK    7  A    between atoms: _14  and  _17
REMARK    8  A    between atoms: _20  and  _22
REMARK    9  A    between atoms: _22  and  _23
REMARK   10  A    between atoms: _22  and  _25
REMARK   11  A    between atoms: _25  and  _26
REMARK   12  A    between atoms: _29  and  _31
REMARK   13  A    between atoms: _31  and  _32
REMARK   14  A    between atoms: _31  and  _34
REMARK   15  A    between atoms: _34  and  _35
REMARK   16  A    between atoms: _38  and  _40
REMARK   17  A    between atoms: _40  and  _41
REMARK   18  A    between atoms: _40  and  _43
REMARK   19  A    between atoms: _43  and  _44
REMARK   20  A    between atoms: _47  and  _49
REMARK   21  A    between atoms: _49  and  _50
REMARK   22  A    between atoms: _49  and  _52
REMARK   23  A    between atoms: _52  and  _53
REMARK   24  A    between atoms: _58  and  _59
REMARK   25  A    between atoms: _61  and  _63
REMARK   26  A    between atoms: _63  and  _64
REMARK   27  A    between atoms: _66  and  _68
REMARK   28  A    between atoms: _68  and  _69
REMARK   29  A    between atoms: _71  and  _73
REMARK   30  A    between atoms: _73  and  _74
REMARK   31  A    between atoms: _73  and  _76
REMARK   32  A    between atoms: _76  and  _77
REMARK   33  A    between atoms: _77  and  _78
REMARK   34  A    between atoms: _83  and  _85
REMARK   35  A    between atoms: _85  and  _86
REMARK   36  A    between atoms: _85  and  _88
REMARK   37  A    between atoms: _88  and  _89
REMARK   38  A    between atoms: _92  and  _94
REMARK   39  A    between atoms: _94  and  _95
REMARK   40  A    between atoms: _94  and  _97
REMARK   41  A    between atoms: _97  and  _98
REMARK   42  A    between atoms: _101  and  _103
REMARK   43  A    between atoms: _103  and  _104
REMARK   44  A    between atoms: _103  and  _106
REMARK   45  A    between atoms: _106  and  _107
REMARK   46  A    between atoms: _107  and  _108
REMARK   47  A    between atoms: _113  and  _115
REMARK   48  A    between atoms: _115  and  _116
REMARK   49  A    between atoms: _115  and  _118
REMARK   50  A    between atoms: _121  and  _123
REMARK   51  A    between atoms: _123  and  _124
REMARK   52  A    between atoms: _123  and  _126
REMARK   53  A    between atoms: _126  and  _127
REMARK   54  A    between atoms: _133  and  _135
REMARK   55  A    between atoms: _135  and  _136
REMARK   56  A    between atoms: _135  and  _138
REMARK   57  A    between atoms: _138  and  _139
REMARK   58  A    between atoms: _144  and  _146
REMARK   59  A    between atoms: _146  and  _147
REMARK   60  A    between atoms: _146  and  _149
REMARK   61  A    between atoms: _149  and  _150
REMARK   62  A    between atoms: _152  and  _154
REMARK   63  A    between atoms: _154  and  _155
REMARK   64  A    between atoms: _154  and  _157
REMARK   65  A    between atoms: _157  and  _158
REMARK   66  A    between atoms: _163  and  _165
REMARK   67  A    between atoms: _165  and  _166
REMARK   68  A    between atoms: _168  and  _170
REMARK   69  A    between atoms: _170  and  _171
REMARK   70  A    between atoms: _173  and  _175
REMARK   71  A    between atoms: _175  and  _176
REMARK   72  A    between atoms: _175  and  _178
REMARK   73  A    between atoms: _178  and  _179
REMARK   74  A    between atoms: _182  and  _184
REMARK   75  A    between atoms: _184  and  _185
REMARK   76  A    between atoms: _184  and  _187
REMARK   77  A    between atoms: _187  and  _188
REMARK   78  A    between atoms: _193  and  _195
REMARK   79  A    between atoms: _195  and  _196
REMARK   80  A    between atoms: _195  and  _198
REMARK   81  A    between atoms: _198  and  _199
REMARK   82  A    between atoms: _199  and  _200
REMARK                            x       y       z     vdW  Elec       q    Type
REMARK                         _______ _______ _______ _____ _____    ______ ____
ROOT
ATOM      1  O   HOH     1      56.695  18.243  13.972  0.00  0.00    +0.000 OA
ENDROOT
TORSDOF 0
REMARK  Name = ../refined-set-2016/4ouj/4ouj_pocket.pdb
REMARK  82 active torsions:
REMARK  status: ('A' for Active; 'I' for Inactive)
REMARK    1  A    between atoms: _1  and  _3
REMARK    2  A    between atoms: _3  and  _4
REMARK    3  A    between atoms: _3  and  _6
REMARK    4  A    between atoms: _6  and  _7
REMARK    5  A    between atoms: _12  and  _14
REMARK    6  A    between atoms: _14  and  _15
REMARK    7  A    between atoms: _14  and  _17
REMARK    8  A    between atoms: _20  and  _22
REMARK    9  A    between atoms: _22  and  _23
REMARK   10  A    between atoms: _22  and  _25
REMARK   11  A    between atoms: _25  and  _26
REMARK   12  A    between atoms: _29  and  _31
REMARK   13  A    between atoms: _31  and  _32
REMARK   14  A    between atoms: _31  and  _34
REMARK   15  A    between atoms: _34  and  _35
REMARK   16  A    between atoms: _38  and  _40
REMARK   17  A    between atoms: _40  and  _41
REMARK   18  A    between atoms: _40  and  _43
REMARK   19  A    between atoms: _43  and  _44
REMARK   20  A    between atoms: _47  and  _49
REMARK   21  A    between atoms: _49  and  _50
REMARK   22  A    between atoms: _49  and  _52
REMARK   23  A    between atoms: _52  and  _53
REMARK   24  A    between atoms: _58  and  _59
REMARK   25  A    between atoms: _61  and  _63
REMARK   26  A    between atoms: _63  and  _64
REMARK   27  A    between atoms: _66  and  _68
REMARK   28  A    between atoms: _68  and  _69
REMARK   29  A    between atoms: _71  and  _73
REMARK   30  A    between atoms: _73  and  _74
REMARK   31  A    between atoms: _73  and  _76
REMARK   32  A    between atoms: _76  and  _77
REMARK   33  A    between atoms: _77  and  _78
REMARK   34  A    between atoms: _83  and  _85
REMARK   35  A    between atoms: _85  and  _86
REMARK   36  A    between atoms: _85  and  _88
REMARK   37  A    between atoms: _88  and  _89
REMARK   38  A    between atoms: _92  and  _94
REMARK   39  A    between atoms: _94  and  _95
REMARK   40  A    between atoms: _94  and  _97
REMARK   41  A    between atoms: _97  and  _98
REMARK   42  A    between atoms: _101  and  _103
REMARK   43  A    between atoms: _103  and  _104
REMARK   44  A    between atoms: _103  and  _106
REMARK   45  A    between atoms: _106  and  _107
REMARK   46  A    between atoms: _107  and  _108
REMARK   47  A    between atoms: _113  and  _115
REMARK   48  A    between atoms: _115  and  _116
REMARK   49  A    between atoms: _115  and  _118
REMARK   50  A    between atoms: _121  and  _123
REMARK   51  A    between atoms: _123  and  _124
REMARK   52  A    between atoms: _123  and  _126
REMARK   53  A    between atoms: _126  and  _127
REMARK   54  A    between atoms: _133  and  _135
REMARK   55  A    between atoms: _135  and  _136
REMARK   56  A    between atoms: _135  and  _138
REMARK   57  A    between atoms: _138  and  _139
REMARK   58  A    between atoms: _144  and  _146
REMARK   59  A    between atoms: _146  and  _147
REMARK   60  A    between atoms: _146  and  _149
REMARK   61  A    between atoms: _149  and  _150
REMARK   62  A    between atoms: _152  and  _154
REMARK   63  A    between atoms: _154  and  _155
REMARK   64  A    between atoms: _154  and  _157
REMARK   65  A    between atoms: _157  and  _158
REMARK   66  A    between atoms: _163  and  _165
REMARK   67  A    between atoms: _165  and  _166
REMARK   68  A    between atoms: _168  and  _170
REMARK   69  A    between atoms: _170  and  _171
REMARK   70  A    between atoms: _173  and  _175
REMARK   71  A    between atoms: _175  and  _176
REMARK   72  A    between atoms: _175  and  _178
REMARK   73  A    between atoms: _178  and  _179
REMARK   74  A    between atoms: _182  and  _184
REMARK   75  A    between atoms: _184  and  _185
REMARK   76  A    between atoms: _184  and  _187
REMARK   77  A    between atoms: _187  and  _188
REMARK   78  A    between atoms: _193  and  _195
REMARK   79  A    between atoms: _195  and  _196
REMARK   80  A    between atoms: _195  and  _198
REMARK   81  A    between atoms: _198  and  _199
REMARK   82  A    between atoms: _199  and  _200
REMARK                            x       y       z     vdW  Elec       q    Type
REMARK                         _______ _______ _______ _____ _____    ______ ____
ROOT
ATOM      1  O   HOH     1      62.607  13.099  -0.261  0.00  0.00    +0.000 OA
ENDROOT
TORSDOF 0
REMARK  Name = ../refined-set-2016/4ouj/4ouj_pocket.pdb
REMARK  82 active torsions:
REMARK  status: ('A' for Active; 'I' for Inactive)
REMARK    1  A    between atoms: _1  and  _3
REMARK    2  A    between atoms: _3  and  _4
REMARK    3  A    between atoms: _3  and  _6
REMARK    4  A    between atoms: _6  and  _7
REMARK    5  A    between atoms: _12  and  _14
REMARK    6  A    between atoms: _14  and  _15
REMARK    7  A    between atoms: _14  and  _17
REMARK    8  A    between atoms: _20  and  _22
REMARK    9  A    between atoms: _22  and  _23
REMARK   10  A    between atoms: _22  and  _25
REMARK   11  A    between atoms: _25  and  _26
REMARK   12  A    between atoms: _29  and  _31
REMARK   13  A    between atoms: _31  and  _32
REMARK   14  A    between atoms: _31  and  _34
REMARK   15  A    between atoms: _34  and  _35
REMARK   16  A    between atoms: _38  and  _40
REMARK   17  A    between atoms: _40  and  _41
REMARK   18  A    between atoms: _40  and  _43
REMARK   19  A    between atoms: _43  and  _44
REMARK   20  A    between atoms: _47  and  _49
REMARK   21  A    between atoms: _49  and  _50
REMARK   22  A    between atoms: _49  and  _52
REMARK   23  A    between atoms: _52  and  _53
REMARK   24  A    between atoms: _58  and  _59
REMARK   25  A    between atoms: _61  and  _63
REMARK   26  A    between atoms: _63  and  _64
REMARK   27  A    between atoms: _66  and  _68
REMARK   28  A    between atoms: _68  and  _69
REMARK   29  A    between atoms: _71  and  _73
REMARK   30  A    between atoms: _73  and  _74
REMARK   31  A    between atoms: _73  and  _76
REMARK   32  A    between atoms: _76  and  _77
REMARK   33  A    between atoms: _77  and  _78
REMARK   34  A    between atoms: _83  and  _85
REMARK   35  A    between atoms: _85  and  _86
REMARK   36  A    between atoms: _85  and  _88
REMARK   37  A    between atoms: _88  and  _89
REMARK   38  A    between atoms: _92  and  _94
REMARK   39  A    between atoms: _94  and  _95
REMARK   40  A    between atoms: _94  and  _97
REMARK   41  A    between atoms: _97  and  _98
REMARK   42  A    between atoms: _101  and  _103
REMARK   43  A    between atoms: _103  and  _104
REMARK   44  A    between atoms: _103  and  _106
REMARK   45  A    between atoms: _106  and  _107
REMARK   46  A    between atoms: _107  and  _108
REMARK   47  A    between atoms: _113  and  _115
REMARK   48  A    between atoms: _115  and  _116
REMARK   49  A    between atoms: _115  and  _118
REMARK   50  A    between atoms: _121  and  _123
REMARK   51  A    between atoms: _123  and  _124
REMARK   52  A    between atoms: _123  and  _126
REMARK   53  A    between atoms: _126  and  _127
REMARK   54  A    between atoms: _133  and  _135
REMARK   55  A    between atoms: _135  and  _136
REMARK   56  A    between atoms: _135  and  _138
REMARK   57  A    between atoms: _138  and  _139
REMARK   58  A    between atoms: _144  and  _146
REMARK   59  A    between atoms: _146  and  _147
REMARK   60  A    between atoms: _146  and  _149
REMARK   61  A    between atoms: _149  and  _150
REMARK   62  A    between atoms: _152  and  _154
REMARK   63  A    between atoms: _154  and  _155
REMARK   64  A    between atoms: _154  and  _157
REMARK   65  A    between atoms: _157  and  _158
REMARK   66  A    between atoms: _163  and  _165
REMARK   67  A    between atoms: _165  and  _166
REMARK   68  A    between atoms: _168  and  _170
REMARK   69  A    between atoms: _170  and  _171
REMARK   70  A    between atoms: _173  and  _175
REMARK   71  A    between atoms: _175  and  _176
REMARK   72  A    between atoms: _175  and  _178
REMARK   73  A    between atoms: _178  and  _179
REMARK   74  A    between atoms: _182  and  _184
REMARK   75  A    between atoms: _184  and  _185
REMARK   76  A    between atoms: _184  and  _187
REMARK   77  A    between atoms: _187  and  _188
REMARK   78  A    between atoms: _193  and  _195
REMARK   79  A    between atoms: _195  and  _196
REMARK   80  A    between atoms: _195  and  _198
REMARK   81  A    between atoms: _198  and  _199
REMARK   82  A    between atoms: _199  and  _200
REMARK                            x       y       z     vdW  Elec       q    Type
REMARK                         _______ _______ _______ _____ _____    ______ ____
ROOT
ATOM      1  O   HOH     1      54.220   9.777   0.632  0.00  0.00    +0.000 OA
ENDROOT
TORSDOF 0
REMARK  Name = ../refined-set-2016/4ouj/4ouj_pocket.pdb
REMARK  82 active torsions:
REMARK  status: ('A' for Active; 'I' for Inactive)
REMARK    1  A    between atoms: _1  and  _3
REMARK    2  A    between atoms: _3  and  _4
REMARK    3  A    between atoms: _3  and  _6
REMARK    4  A    between atoms: _6  and  _7
REMARK    5  A    between atoms: _12  and  _14
REMARK    6  A    between atoms: _14  and  _15
REMARK    7  A    between atoms: _14  and  _17
REMARK    8  A    between atoms: _20  and  _22
REMARK    9  A    between atoms: _22  and  _23
REMARK   10  A    between atoms: _22  and  _25
REMARK   11  A    between atoms: _25  and  _26
REMARK   12  A    between atoms: _29  and  _31
REMARK   13  A    between atoms: _31  and  _32
REMARK   14  A    between atoms: _31  and  _34
REMARK   15  A    between atoms: _34  and  _35
REMARK   16  A    between atoms: _38  and  _40
REMARK   17  A    between atoms: _40  and  _41
REMARK   18  A    between atoms: _40  and  _43
REMARK   19  A    between atoms: _43  and  _44
REMARK   20  A    between atoms: _47  and  _49
REMARK   21  A    between atoms: _49  and  _50
REMARK   22  A    between atoms: _49  and  _52
REMARK   23  A    between atoms: _52  and  _53
REMARK   24  A    between atoms: _58  and  _59
REMARK   25  A    between atoms: _61  and  _63
REMARK   26  A    between atoms: _63  and  _64
REMARK   27  A    between atoms: _66  and  _68
REMARK   28  A    between atoms: _68  and  _69
REMARK   29  A    between atoms: _71  and  _73
REMARK   30  A    between atoms: _73  and  _74
REMARK   31  A    between atoms: _73  and  _76
REMARK   32  A    between atoms: _76  and  _77
REMARK   33  A    between atoms: _77  and  _78
REMARK   34  A    between atoms: _83  and  _85
REMARK   35  A    between atoms: _85  and  _86
REMARK   36  A    between atoms: _85  and  _88
REMARK   37  A    between atoms: _88  and  _89
REMARK   38  A    between atoms: _92  and  _94
REMARK   39  A    between atoms: _94  and  _95
REMARK   40  A    between atoms: _94  and  _97
REMARK   41  A    between atoms: _97  and  _98
REMARK   42  A    between atoms: _101  and  _103
REMARK   43  A    between atoms: _103  and  _104
REMARK   44  A    between atoms: _103  and  _106
REMARK   45  A    between atoms: _106  and  _107
REMARK   46  A    between atoms: _107  and  _108
REMARK   47  A    between atoms: _113  and  _115
REMARK   48  A    between atoms: _115  and  _116
REMARK   49  A    between atoms: _115  and  _118
REMARK   50  A    between atoms: _121  and  _123
REMARK   51  A    between atoms: _123  and  _124
REMARK   52  A    between atoms: _123  and  _126
REMARK   53  A    between atoms: _126  and  _127
REMARK   54  A    between atoms: _133  and  _135
REMARK   55  A    between atoms: _135  and  _136
REMARK   56  A    between atoms: _135  and  _138
REMARK   57  A    between atoms: _138  and  _139
REMARK   58  A    between atoms: _144  and  _146
REMARK   59  A    between atoms: _146  and  _147
REMARK   60  A    between atoms: _146  and  _149
REMARK   61  A    between atoms: _149  and  _150
REMARK   62  A    between atoms: _152  and  _154
REMARK   63  A    between atoms: _154  and  _155
REMARK   64  A    between atoms: _154  and  _157
REMARK   65  A    between atoms: _157  and  _158
REMARK   66  A    between atoms: _163  and  _165
REMARK   67  A    between atoms: _165  and  _166
REMARK   68  A    between atoms: _168  and  _170
REMARK   69  A    between atoms: _170  and  _171
REMARK   70  A    between atoms: _173  and  _175
REMARK   71  A    between atoms: _175  and  _176
REMARK   72  A    between atoms: _175  and  _178
REMARK   73  A    between atoms: _178  and  _179
REMARK   74  A    between atoms: _182  and  _184
REMARK   75  A    between atoms: _184  and  _185
REMARK   76  A    between atoms: _184  and  _187
REMARK   77  A    between atoms: _187  and  _188
REMARK   78  A    between atoms: _193  and  _195
REMARK   79  A    between atoms: _195  and  _196
REMARK   80  A    between atoms: _195  and  _198
REMARK   81  A    between atoms: _198  and  _199
REMARK   82  A    between atoms: _199  and  _200
REMARK                            x       y       z     vdW  Elec       q    Type
REMARK                         _______ _______ _______ _____ _____    ______ ____
ROOT
ATOM      1  O   HOH     1      59.841  21.163  11.914  0.00  0.00    +0.000 OA
ENDROOT
TORSDOF 0
REMARK  Name = ../refined-set-2016/4ouj/4ouj_pocket.pdb
REMARK  82 active torsions:
REMARK  status: ('A' for Active; 'I' for Inactive)
REMARK    1  A    between atoms: _1  and  _3
REMARK    2  A    between atoms: _3  and  _4
REMARK    3  A    between atoms: _3  and  _6
REMARK    4  A    between atoms: _6  and  _7
REMARK    5  A    between atoms: _12  and  _14
REMARK    6  A    between atoms: _14  and  _15
REMARK    7  A    between atoms: _14  and  _17
REMARK    8  A    between atoms: _20  and  _22
REMARK    9  A    between atoms: _22  and  _23
REMARK   10  A    between atoms: _22  and  _25
REMARK   11  A    between atoms: _25  and  _26
REMARK   12  A    between atoms: _29  and  _31
REMARK   13  A    between atoms: _31  and  _32
REMARK   14  A    between atoms: _31  and  _34
REMARK   15  A    between atoms: _34  and  _35
REMARK   16  A    between atoms: _38  and  _40
REMARK   17  A    between atoms: _40  and  _41
REMARK   18  A    between atoms: _40  and  _43
REMARK   19  A    between atoms: _43  and  _44
REMARK   20  A    between atoms: _47  and  _49
REMARK   21  A    between atoms: _49  and  _50
REMARK   22  A    between atoms: _49  and  _52
REMARK   23  A    between atoms: _52  and  _53
REMARK   24  A    between atoms: _58  and  _59
REMARK   25  A    between atoms: _61  and  _63
REMARK   26  A    between atoms: _63  and  _64
REMARK   27  A    between atoms: _66  and  _68
REMARK   28  A    between atoms: _68  and  _69
REMARK   29  A    between atoms: _71  and  _73
REMARK   30  A    between atoms: _73  and  _74
REMARK   31  A    between atoms: _73  and  _76
REMARK   32  A    between atoms: _76  and  _77
REMARK   33  A    between atoms: _77  and  _78
REMARK   34  A    between atoms: _83  and  _85
REMARK   35  A    between atoms: _85  and  _86
REMARK   36  A    between atoms: _85  and  _88
REMARK   37  A    between atoms: _88  and  _89
REMARK   38  A    between atoms: _92  and  _94
REMARK   39  A    between atoms: _94  and  _95
REMARK   40  A    between atoms: _94  and  _97
REMARK   41  A    between atoms: _97  and  _98
REMARK   42  A    between atoms: _101  and  _103
REMARK   43  A    between atoms: _103  and  _104
REMARK   44  A    between atoms: _103  and  _106
REMARK   45  A    between atoms: _106  and  _107
REMARK   46  A    between atoms: _107  and  _108
REMARK   47  A    between atoms: _113  and  _115
REMARK   48  A    between atoms: _115  and  _116
REMARK   49  A    between atoms: _115  and  _118
REMARK   50  A    between atoms: _121  and  _123
REMARK   51  A    between atoms: _123  and  _124
REMARK   52  A    between atoms: _123  and  _126
REMARK   53  A    between atoms: _126  and  _127
REMARK   54  A    between atoms: _133  and  _135
REMARK   55  A    between atoms: _135  and  _136
REMARK   56  A    between atoms: _135  and  _138
REMARK   57  A    between atoms: _138  and  _139
REMARK   58  A    between atoms: _144  and  _146
REMARK   59  A    between atoms: _146  and  _147
REMARK   60  A    between atoms: _146  and  _149
REMARK   61  A    between atoms: _149  and  _150
REMARK   62  A    between atoms: _152  and  _154
REMARK   63  A    between atoms: _154  and  _155
REMARK   64  A    between atoms: _154  and  _157
REMARK   65  A    between atoms: _157  and  _158
REMARK   66  A    between atoms: _163  and  _165
REMARK   67  A    between atoms: _165  and  _166
REMARK   68  A    between atoms: _168  and  _170
REMARK   69  A    between atoms: _170  and  _171
REMARK   70  A    between atoms: _173  and  _175
REMARK   71  A    between atoms: _175  and  _176
REMARK   72  A    between atoms: _175  and  _178
REMARK   73  A    between atoms: _178  and  _179
REMARK   74  A    between atoms: _182  and  _184
REMARK   75  A    between atoms: _184  and  _185
REMARK   76  A    between atoms: _184  and  _187
REMARK   77  A    between atoms: _187  and  _188
REMARK   78  A    between atoms: _193  and  _195
REMARK   79  A    between atoms: _195  and  _196
REMARK   80  A    between atoms: _195  and  _198
REMARK   81  A    between atoms: _198  and  _199
REMARK   82  A    between atoms: _199  and  _200
REMARK                            x       y       z     vdW  Elec       q    Type
REMARK                         _______ _______ _______ _____ _____    ______ ____
ROOT
ATOM      1  O   HOH     1      64.874  17.307   2.890  0.00  0.00    +0.000 OA
ENDROOT
TORSDOF 0
REMARK  Name = ../refined-set-2016/4ouj/4ouj_pocket.pdb
REMARK  82 active torsions:
REMARK  status: ('A' for Active; 'I' for Inactive)
REMARK    1  A    between atoms: _1  and  _3
REMARK    2  A    between atoms: _3  and  _4
REMARK    3  A    between atoms: _3  and  _6
REMARK    4  A    between atoms: _6  and  _7
REMARK    5  A    between atoms: _12  and  _14
REMARK    6  A    between atoms: _14  and  _15
REMARK    7  A    between atoms: _14  and  _17
REMARK    8  A    between atoms: _20  and  _22
REMARK    9  A    between atoms: _22  and  _23
REMARK   10  A    between atoms: _22  and  _25
REMARK   11  A    between atoms: _25  and  _26
REMARK   12  A    between atoms: _29  and  _31
REMARK   13  A    between atoms: _31  and  _32
REMARK   14  A    between atoms: _31  and  _34
REMARK   15  A    between atoms: _34  and  _35
REMARK   16  A    between atoms: _38  and  _40
REMARK   17  A    between atoms: _40  and  _41
REMARK   18  A    between atoms: _40  and  _43
REMARK   19  A    between atoms: _43  and  _44
REMARK   20  A    between atoms: _47  and  _49
REMARK   21  A    between atoms: _49  and  _50
REMARK   22  A    between atoms: _49  and  _52
REMARK   23  A    between atoms: _52  and  _53
REMARK   24  A    between atoms: _58  and  _59
REMARK   25  A    between atoms: _61  and  _63
REMARK   26  A    between atoms: _63  and  _64
REMARK   27  A    between atoms: _66  and  _68
REMARK   28  A    between atoms: _68  and  _69
REMARK   29  A    between atoms: _71  and  _73
REMARK   30  A    between atoms: _73  and  _74
REMARK   31  A    between atoms: _73  and  _76
REMARK   32  A    between atoms: _76  and  _77
REMARK   33  A    between atoms: _77  and  _78
REMARK   34  A    between atoms: _83  and  _85
REMARK   35  A    between atoms: _85  and  _86
REMARK   36  A    between atoms: _85  and  _88
REMARK   37  A    between atoms: _88  and  _89
REMARK   38  A    between atoms: _92  and  _94
REMARK   39  A    between atoms: _94  and  _95
REMARK   40  A    between atoms: _94  and  _97
REMARK   41  A    between atoms: _97  and  _98
REMARK   42  A    between atoms: _101  and  _103
REMARK   43  A    between atoms: _103  and  _104
REMARK   44  A    between atoms: _103  and  _106
REMARK   45  A    between atoms: _106  and  _107
REMARK   46  A    between atoms: _107  and  _108
REMARK   47  A    between atoms: _113  and  _115
REMARK   48  A    between atoms: _115  and  _116
REMARK   49  A    between atoms: _115  and  _118
REMARK   50  A    between atoms: _121  and  _123
REMARK   51  A    between atoms: _123  and  _124
REMARK   52  A    between atoms: _123  and  _126
REMARK   53  A    between atoms: _126  and  _127
REMARK   54  A    between atoms: _133  and  _135
REMARK   55  A    between atoms: _135  and  _136
REMARK   56  A    between atoms: _135  and  _138
REMARK   57  A    between atoms: _138  and  _139
REMARK   58  A    between atoms: _144  and  _146
REMARK   59  A    between atoms: _146  and  _147
REMARK   60  A    between atoms: _146  and  _149
REMARK   61  A    between atoms: _149  and  _150
REMARK   62  A    between atoms: _152  and  _154
REMARK   63  A    between atoms: _154  and  _155
REMARK   64  A    between atoms: _154  and  _157
REMARK   65  A    between atoms: _157  and  _158
REMARK   66  A    between atoms: _163  and  _165
REMARK   67  A    between atoms: _165  and  _166
REMARK   68  A    between atoms: _168  and  _170
REMARK   69  A    between atoms: _170  and  _171
REMARK   70  A    between atoms: _173  and  _175
REMARK   71  A    between atoms: _175  and  _176
REMARK   72  A    between atoms: _175  and  _178
REMARK   73  A    between atoms: _178  and  _179
REMARK   74  A    between atoms: _182  and  _184
REMARK   75  A    between atoms: _184  and  _185
REMARK   76  A    between atoms: _184  and  _187
REMARK   77  A    between atoms: _187  and  _188
REMARK   78  A    between atoms: _193  and  _195
REMARK   79  A    between atoms: _195  and  _196
REMARK   80  A    between atoms: _195  and  _198
REMARK   81  A    between atoms: _198  and  _199
REMARK   82  A    between atoms: _199  and  _200
REMARK                            x       y       z     vdW  Elec       q    Type
REMARK                         _______ _______ _______ _____ _____    ______ ____
ROOT
ATOM      1  O   HOH     1      53.691  11.080   3.965  0.00  0.00    +0.000 OA
ENDROOT
TORSDOF 0
REMARK  Name = ../refined-set-2016/4ouj/4ouj_pocket.pdb
REMARK  82 active torsions:
REMARK  status: ('A' for Active; 'I' for Inactive)
REMARK    1  A    between atoms: _1  and  _3
REMARK    2  A    between atoms: _3  and  _4
REMARK    3  A    between atoms: _3  and  _6
REMARK    4  A    between atoms: _6  and  _7
REMARK    5  A    between atoms: _12  and  _14
REMARK    6  A    between atoms: _14  and  _15
REMARK    7  A    between atoms: _14  and  _17
REMARK    8  A    between atoms: _20  and  _22
REMARK    9  A    between atoms: _22  and  _23
REMARK   10  A    between atoms: _22  and  _25
REMARK   11  A    between atoms: _25  and  _26
REMARK   12  A    between atoms: _29  and  _31
REMARK   13  A    between atoms: _31  and  _32
REMARK   14  A    between atoms: _31  and  _34
REMARK   15  A    between atoms: _34  and  _35
REMARK   16  A    between atoms: _38  and  _40
REMARK   17  A    between atoms: _40  and  _41
REMARK   18  A    between atoms: _40  and  _43
REMARK   19  A    between atoms: _43  and  _44
REMARK   20  A    between atoms: _47  and  _49
REMARK   21  A    between atoms: _49  and  _50
REMARK   22  A    between atoms: _49  and  _52
REMARK   23  A    between atoms: _52  and  _53
REMARK   24  A    between atoms: _58  and  _59
REMARK   25  A    between atoms: _61  and  _63
REMARK   26  A    between atoms: _63  and  _64
REMARK   27  A    between atoms: _66  and  _68
REMARK   28  A    between atoms: _68  and  _69
REMARK   29  A    between atoms: _71  and  _73
REMARK   30  A    between atoms: _73  and  _74
REMARK   31  A    between atoms: _73  and  _76
REMARK   32  A    between atoms: _76  and  _77
REMARK   33  A    between atoms: _77  and  _78
REMARK   34  A    between atoms: _83  and  _85
REMARK   35  A    between atoms: _85  and  _86
REMARK   36  A    between atoms: _85  and  _88
REMARK   37  A    between atoms: _88  and  _89
REMARK   38  A    between atoms: _92  and  _94
REMARK   39  A    between atoms: _94  and  _95
REMARK   40  A    between atoms: _94  and  _97
REMARK   41  A    between atoms: _97  and  _98
REMARK   42  A    between atoms: _101  and  _103
REMARK   43  A    between atoms: _103  and  _104
REMARK   44  A    between atoms: _103  and  _106
REMARK   45  A    between atoms: _106  and  _107
REMARK   46  A    between atoms: _107  and  _108
REMARK   47  A    between atoms: _113  and  _115
REMARK   48  A    between atoms: _115  and  _116
REMARK   49  A    between atoms: _115  and  _118
REMARK   50  A    between atoms: _121  and  _123
REMARK   51  A    between atoms: _123  and  _124
REMARK   52  A    between atoms: _123  and  _126
REMARK   53  A    between atoms: _126  and  _127
REMARK   54  A    between atoms: _133  and  _135
REMARK   55  A    between atoms: _135  and  _136
REMARK   56  A    between atoms: _135  and  _138
REMARK   57  A    between atoms: _138  and  _139
REMARK   58  A    between atoms: _144  and  _146
REMARK   59  A    between atoms: _146  and  _147
REMARK   60  A    between atoms: _146  and  _149
REMARK   61  A    between atoms: _149  and  _150
REMARK   62  A    between atoms: _152  and  _154
REMARK   63  A    between atoms: _154  and  _155
REMARK   64  A    between atoms: _154  and  _157
REMARK   65  A    between atoms: _157  and  _158
REMARK   66  A    between atoms: _163  and  _165
REMARK   67  A    between atoms: _165  and  _166
REMARK   68  A    between atoms: _168  and  _170
REMARK   69  A    between atoms: _170  and  _171
REMARK   70  A    between atoms: _173  and  _175
REMARK   71  A    between atoms: _175  and  _176
REMARK   72  A    between atoms: _175  and  _178
REMARK   73  A    between atoms: _178  and  _179
REMARK   74  A    between atoms: _182  and  _184
REMARK   75  A    between atoms: _184  and  _185
REMARK   76  A    between atoms: _184  and  _187
REMARK   77  A    between atoms: _187  and  _188
REMARK   78  A    between atoms: _193  and  _195
REMARK   79  A    between atoms: _195  and  _196
REMARK   80  A    between atoms: _195  and  _198
REMARK   81  A    between atoms: _198  and  _199
REMARK   82  A    between atoms: _199  and  _200
REMARK                            x       y       z     vdW  Elec       q    Type
REMARK                         _______ _______ _______ _____ _____    ______ ____
ROOT
ATOM      1  O   HOH     1      53.884  15.375  13.312  0.00  0.00    +0.000 OA
ENDROOT
TORSDOF 0
REMARK  Name = ../refined-set-2016/4ouj/4ouj_pocket.pdb
REMARK  82 active torsions:
REMARK  status: ('A' for Active; 'I' for Inactive)
REMARK    1  A    between atoms: _1  and  _3
REMARK    2  A    between atoms: _3  and  _4
REMARK    3  A    between atoms: _3  and  _6
REMARK    4  A    between atoms: _6  and  _7
REMARK    5  A    between atoms: _12  and  _14
REMARK    6  A    between atoms: _14  and  _15
REMARK    7  A    between atoms: _14  and  _17
REMARK    8  A    between atoms: _20  and  _22
REMARK    9  A    between atoms: _22  and  _23
REMARK   10  A    between atoms: _22  and  _25
REMARK   11  A    between atoms: _25  and  _26
REMARK   12  A    between atoms: _29  and  _31
REMARK   13  A    between atoms: _31  and  _32
REMARK   14  A    between atoms: _31  and  _34
REMARK   15  A    between atoms: _34  and  _35
REMARK   16  A    between atoms: _38  and  _40
REMARK   17  A    between atoms: _40  and  _41
REMARK   18  A    between atoms: _40  and  _43
REMARK   19  A    between atoms: _43  and  _44
REMARK   20  A    between atoms: _47  and  _49
REMARK   21  A    between atoms: _49  and  _50
REMARK   22  A    between atoms: _49  and  _52
REMARK   23  A    between atoms: _52  and  _53
REMARK   24  A    between atoms: _58  and  _59
REMARK   25  A    between atoms: _61  and  _63
REMARK   26  A    between atoms: _63  and  _64
REMARK   27  A    between atoms: _66  and  _68
REMARK   28  A    between atoms: _68  and  _69
REMARK   29  A    between atoms: _71  and  _73
REMARK   30  A    between atoms: _73  and  _74
REMARK   31  A    between atoms: _73  and  _76
REMARK   32  A    between atoms: _76  and  _77
REMARK   33  A    between atoms: _77  and  _78
REMARK   34  A    between atoms: _83  and  _85
REMARK   35  A    between atoms: _85  and  _86
REMARK   36  A    between atoms: _85  and  _88
REMARK   37  A    between atoms: _88  and  _89
REMARK   38  A    between atoms: _92  and  _94
REMARK   39  A    between atoms: _94  and  _95
REMARK   40  A    between atoms: _94  and  _97
REMARK   41  A    between atoms: _97  and  _98
REMARK   42  A    between atoms: _101  and  _103
REMARK   43  A    between atoms: _103  and  _104
REMARK   44  A    between atoms: _103  and  _106
REMARK   45  A    between atoms: _106  and  _107
REMARK   46  A    between atoms: _107  and  _108
REMARK   47  A    between atoms: _113  and  _115
REMARK   48  A    between atoms: _115  and  _116
REMARK   49  A    between atoms: _115  and  _118
REMARK   50  A    between atoms: _121  and  _123
REMARK   51  A    between atoms: _123  and  _124
REMARK   52  A    between atoms: _123  and  _126
REMARK   53  A    between atoms: _126  and  _127
REMARK   54  A    between atoms: _133  and  _135
REMARK   55  A    between atoms: _135  and  _136
REMARK   56  A    between atoms: _135  and  _138
REMARK   57  A    between atoms: _138  and  _139
REMARK   58  A    between atoms: _144  and  _146
REMARK   59  A    between atoms: _146  and  _147
REMARK   60  A    between atoms: _146  and  _149
REMARK   61  A    between atoms: _149  and  _150
REMARK   62  A    between atoms: _152  and  _154
REMARK   63  A    between atoms: _154  and  _155
REMARK   64  A    between atoms: _154  and  _157
REMARK   65  A    between atoms: _157  and  _158
REMARK   66  A    between atoms: _163  and  _165
REMARK   67  A    between atoms: _165  and  _166
REMARK   68  A    between atoms: _168  and  _170
REMARK   69  A    between atoms: _170  and  _171
REMARK   70  A    between atoms: _173  and  _175
REMARK   71  A    between atoms: _175  and  _176
REMARK   72  A    between atoms: _175  and  _178
REMARK   73  A    between atoms: _178  and  _179
REMARK   74  A    between atoms: _182  and  _184
REMARK   75  A    between atoms: _184  and  _185
REMARK   76  A    between atoms: _184  and  _187
REMARK   77  A    between atoms: _187  and  _188
REMARK   78  A    between atoms: _193  and  _195
REMARK   79  A    between atoms: _195  and  _196
REMARK   80  A    between atoms: _195  and  _198
REMARK   81  A    between atoms: _198  and  _199
REMARK   82  A    between atoms: _199  and  _200
REMARK                            x       y       z     vdW  Elec       q    Type
REMARK                         _______ _______ _______ _____ _____    ______ ____
ROOT
ATOM      1  O   HOH     1      59.534  20.232   7.811  0.00  0.00    +0.000 OA
ENDROOT
TORSDOF 0
REMARK  Name = ../refined-set-2016/4ouj/4ouj_pocket.pdb
REMARK  82 active torsions:
REMARK  status: ('A' for Active; 'I' for Inactive)
REMARK    1  A    between atoms: _1  and  _3
REMARK    2  A    between atoms: _3  and  _4
REMARK    3  A    between atoms: _3  and  _6
REMARK    4  A    between atoms: _6  and  _7
REMARK    5  A    between atoms: _12  and  _14
REMARK    6  A    between atoms: _14  and  _15
REMARK    7  A    between atoms: _14  and  _17
REMARK    8  A    between atoms: _20  and  _22
REMARK    9  A    between atoms: _22  and  _23
REMARK   10  A    between atoms: _22  and  _25
REMARK   11  A    between atoms: _25  and  _26
REMARK   12  A    between atoms: _29  and  _31
REMARK   13  A    between atoms: _31  and  _32
REMARK   14  A    between atoms: _31  and  _34
REMARK   15  A    between atoms: _34  and  _35
REMARK   16  A    between atoms: _38  and  _40
REMARK   17  A    between atoms: _40  and  _41
REMARK   18  A    between atoms: _40  and  _43
REMARK   19  A    between atoms: _43  and  _44
REMARK   20  A    between atoms: _47  and  _49
REMARK   21  A    between atoms: _49  and  _50
REMARK   22  A    between atoms: _49  and  _52
REMARK   23  A    between atoms: _52  and  _53
REMARK   24  A    between atoms: _58  and  _59
REMARK   25  A    between atoms: _61  and  _63
REMARK   26  A    between atoms: _63  and  _64
REMARK   27  A    between atoms: _66  and  _68
REMARK   28  A    between atoms: _68  and  _69
REMARK   29  A    between atoms: _71  and  _73
REMARK   30  A    between atoms: _73  and  _74
REMARK   31  A    between atoms: _73  and  _76
REMARK   32  A    between atoms: _76  and  _77
REMARK   33  A    between atoms: _77  and  _78
REMARK   34  A    between atoms: _83  and  _85
REMARK   35  A    between atoms: _85  and  _86
REMARK   36  A    between atoms: _85  and  _88
REMARK   37  A    between atoms: _88  and  _89
REMARK   38  A    between atoms: _92  and  _94
REMARK   39  A    between atoms: _94  and  _95
REMARK   40  A    between atoms: _94  and  _97
REMARK   41  A    between atoms: _97  and  _98
REMARK   42  A    between atoms: _101  and  _103
REMARK   43  A    between atoms: _103  and  _104
REMARK   44  A    between atoms: _103  and  _106
REMARK   45  A    between atoms: _106  and  _107
REMARK   46  A    between atoms: _107  and  _108
REMARK   47  A    between atoms: _113  and  _115
REMARK   48  A    between atoms: _115  and  _116
REMARK   49  A    between atoms: _115  and  _118
REMARK   50  A    between atoms: _121  and  _123
REMARK   51  A    between atoms: _123  and  _124
REMARK   52  A    between atoms: _123  and  _126
REMARK   53  A    between atoms: _126  and  _127
REMARK   54  A    between atoms: _133  and  _135
REMARK   55  A    between atoms: _135  and  _136
REMARK   56  A    between atoms: _135  and  _138
REMARK   57  A    between atoms: _138  and  _139
REMARK   58  A    between atoms: _144  and  _146
REMARK   59  A    between atoms: _146  and  _147
REMARK   60  A    between atoms: _146  and  _149
REMARK   61  A    between atoms: _149  and  _150
REMARK   62  A    between atoms: _152  and  _154
REMARK   63  A    between atoms: _154  and  _155
REMARK   64  A    between atoms: _154  and  _157
REMARK   65  A    between atoms: _157  and  _158
REMARK   66  A    between atoms: _163  and  _165
REMARK   67  A    between atoms: _165  and  _166
REMARK   68  A    between atoms: _168  and  _170
REMARK   69  A    between atoms: _170  and  _171
REMARK   70  A    between atoms: _173  and  _175
REMARK   71  A    between atoms: _175  and  _176
REMARK   72  A    between atoms: _175  and  _178
REMARK   73  A    between atoms: _178  and  _179
REMARK   74  A    between atoms: _182  and  _184
REMARK   75  A    between atoms: _184  and  _185
REMARK   76  A    between atoms: _184  and  _187
REMARK   77  A    between atoms: _187  and  _188
REMARK   78  A    between atoms: _193  and  _195
REMARK   79  A    between atoms: _195  and  _196
REMARK   80  A    between atoms: _195  and  _198
REMARK   81  A    between atoms: _198  and  _199
REMARK   82  A    between atoms: _199  and  _200
REMARK                            x       y       z     vdW  Elec       q    Type
REMARK                         _______ _______ _______ _____ _____    ______ ____
ROOT
ATOM      1  O   HOH     1      59.582  22.468   9.354  0.00  0.00    +0.000 OA
ENDROOT
TORSDOF 0
REMARK  Name = ../refined-set-2016/4ouj/4ouj_pocket.pdb
REMARK  82 active torsions:
REMARK  status: ('A' for Active; 'I' for Inactive)
REMARK    1  A    between atoms: _1  and  _3
REMARK    2  A    between atoms: _3  and  _4
REMARK    3  A    between atoms: _3  and  _6
REMARK    4  A    between atoms: _6  and  _7
REMARK    5  A    between atoms: _12  and  _14
REMARK    6  A    between atoms: _14  and  _15
REMARK    7  A    between atoms: _14  and  _17
REMARK    8  A    between atoms: _20  and  _22
REMARK    9  A    between atoms: _22  and  _23
REMARK   10  A    between atoms: _22  and  _25
REMARK   11  A    between atoms: _25  and  _26
REMARK   12  A    between atoms: _29  and  _31
REMARK   13  A    between atoms: _31  and  _32
REMARK   14  A    between atoms: _31  and  _34
REMARK   15  A    between atoms: _34  and  _35
REMARK   16  A    between atoms: _38  and  _40
REMARK   17  A    between atoms: _40  and  _41
REMARK   18  A    between atoms: _40  and  _43
REMARK   19  A    between atoms: _43  and  _44
REMARK   20  A    between atoms: _47  and  _49
REMARK   21  A    between atoms: _49  and  _50
REMARK   22  A    between atoms: _49  and  _52
REMARK   23  A    between atoms: _52  and  _53
REMARK   24  A    between atoms: _58  and  _59
REMARK   25  A    between atoms: _61  and  _63
REMARK   26  A    between atoms: _63  and  _64
REMARK   27  A    between atoms: _66  and  _68
REMARK   28  A    between atoms: _68  and  _69
REMARK   29  A    between atoms: _71  and  _73
REMARK   30  A    between atoms: _73  and  _74
REMARK   31  A    between atoms: _73  and  _76
REMARK   32  A    between atoms: _76  and  _77
REMARK   33  A    between atoms: _77  and  _78
REMARK   34  A    between atoms: _83  and  _85
REMARK   35  A    between atoms: _85  and  _86
REMARK   36  A    between atoms: _85  and  _88
REMARK   37  A    between atoms: _88  and  _89
REMARK   38  A    between atoms: _92  and  _94
REMARK   39  A    between atoms: _94  and  _95
REMARK   40  A    between atoms: _94  and  _97
REMARK   41  A    between atoms: _97  and  _98
REMARK   42  A    between atoms: _101  and  _103
REMARK   43  A    between atoms: _103  and  _104
REMARK   44  A    between atoms: _103  and  _106
REMARK   45  A    between atoms: _106  and  _107
REMARK   46  A    between atoms: _107  and  _108
REMARK   47  A    between atoms: _113  and  _115
REMARK   48  A    between atoms: _115  and  _116
REMARK   49  A    between atoms: _115  and  _118
REMARK   50  A    between atoms: _121  and  _123
REMARK   51  A    between atoms: _123  and  _124
REMARK   52  A    between atoms: _123  and  _126
REMARK   53  A    between atoms: _126  and  _127
REMARK   54  A    between atoms: _133  and  _135
REMARK   55  A    between atoms: _135  and  _136
REMARK   56  A    between atoms: _135  and  _138
REMARK   57  A    between atoms: _138  and  _139
REMARK   58  A    between atoms: _144  and  _146
REMARK   59  A    between atoms: _146  and  _147
REMARK   60  A    between atoms: _146  and  _149
REMARK   61  A    between atoms: _149  and  _150
REMARK   62  A    between atoms: _152  and  _154
REMARK   63  A    between atoms: _154  and  _155
REMARK   64  A    between atoms: _154  and  _157
REMARK   65  A    between atoms: _157  and  _158
REMARK   66  A    between atoms: _163  and  _165
REMARK   67  A    between atoms: _165  and  _166
REMARK   68  A    between atoms: _168  and  _170
REMARK   69  A    between atoms: _170  and  _171
REMARK   70  A    between atoms: _173  and  _175
REMARK   71  A    between atoms: _175  and  _176
REMARK   72  A    between atoms: _175  and  _178
REMARK   73  A    between atoms: _178  and  _179
REMARK   74  A    between atoms: _182  and  _184
REMARK   75  A    between atoms: _184  and  _185
REMARK   76  A    between atoms: _184  and  _187
REMARK   77  A    between atoms: _187  and  _188
REMARK   78  A    between atoms: _193  and  _195
REMARK   79  A    between atoms: _195  and  _196
REMARK   80  A    between atoms: _195  and  _198
REMARK   81  A    between atoms: _198  and  _199
REMARK   82  A    between atoms: _199  and  _200
REMARK                            x       y       z     vdW  Elec       q    Type
REMARK                         _______ _______ _______ _____ _____    ______ ____
ROOT
ATOM      1  O   HOH     1      62.562  17.391   1.646  0.00  0.00    +0.000 OA
ENDROOT
TORSDOF 0
REMARK  Name = ../refined-set-2016/4ouj/4ouj_pocket.pdb
REMARK  82 active torsions:
REMARK  status: ('A' for Active; 'I' for Inactive)
REMARK    1  A    between atoms: _1  and  _3
REMARK    2  A    between atoms: _3  and  _4
REMARK    3  A    between atoms: _3  and  _6
REMARK    4  A    between atoms: _6  and  _7
REMARK    5  A    between atoms: _12  and  _14
REMARK    6  A    between atoms: _14  and  _15
REMARK    7  A    between atoms: _14  and  _17
REMARK    8  A    between atoms: _20  and  _22
REMARK    9  A    between atoms: _22  and  _23
REMARK   10  A    between atoms: _22  and  _25
REMARK   11  A    between atoms: _25  and  _26
REMARK   12  A    between atoms: _29  and  _31
REMARK   13  A    between atoms: _31  and  _32
REMARK   14  A    between atoms: _31  and  _34
REMARK   15  A    between atoms: _34  and  _35
REMARK   16  A    between atoms: _38  and  _40
REMARK   17  A    between atoms: _40  and  _41
REMARK   18  A    between atoms: _40  and  _43
REMARK   19  A    between atoms: _43  and  _44
REMARK   20  A    between atoms: _47  and  _49
REMARK   21  A    between atoms: _49  and  _50
REMARK   22  A    between atoms: _49  and  _52
REMARK   23  A    between atoms: _52  and  _53
REMARK   24  A    between atoms: _58  and  _59
REMARK   25  A    between atoms: _61  and  _63
REMARK   26  A    between atoms: _63  and  _64
REMARK   27  A    between atoms: _66  and  _68
REMARK   28  A    between atoms: _68  and  _69
REMARK   29  A    between atoms: _71  and  _73
REMARK   30  A    between atoms: _73  and  _74
REMARK   31  A    between atoms: _73  and  _76
REMARK   32  A    between atoms: _76  and  _77
REMARK   33  A    between atoms: _77  and  _78
REMARK   34  A    between atoms: _83  and  _85
REMARK   35  A    between atoms: _85  and  _86
REMARK   36  A    between atoms: _85  and  _88
REMARK   37  A    between atoms: _88  and  _89
REMARK   38  A    between atoms: _92  and  _94
REMARK   39  A    between atoms: _94  and  _95
REMARK   40  A    between atoms: _94  and  _97
REMARK   41  A    between atoms: _97  and  _98
REMARK   42  A    between atoms: _101  and  _103
REMARK   43  A    between atoms: _103  and  _104
REMARK   44  A    between atoms: _103  and  _106
REMARK   45  A    between atoms: _106  and  _107
REMARK   46  A    between atoms: _107  and  _108
REMARK   47  A    between atoms: _113  and  _115
REMARK   48  A    between atoms: _115  and  _116
REMARK   49  A    between atoms: _115  and  _118
REMARK   50  A    between atoms: _121  and  _123
REMARK   51  A    between atoms: _123  and  _124
REMARK   52  A    between atoms: _123  and  _126
REMARK   53  A    between atoms: _126  and  _127
REMARK   54  A    between atoms: _133  and  _135
REMARK   55  A    between atoms: _135  and  _136
REMARK   56  A    between atoms: _135  and  _138
REMARK   57  A    between atoms: _138  and  _139
REMARK   58  A    between atoms: _144  and  _146
REMARK   59  A    between atoms: _146  and  _147
REMARK   60  A    between atoms: _146  and  _149
REMARK   61  A    between atoms: _149  and  _150
REMARK   62  A    between atoms: _152  and  _154
REMARK   63  A    between atoms: _154  and  _155
REMARK   64  A    between atoms: _154  and  _157
REMARK   65  A    between atoms: _157  and  _158
REMARK   66  A    between atoms: _163  and  _165
REMARK   67  A    between atoms: _165  and  _166
REMARK   68  A    between atoms: _168  and  _170
REMARK   69  A    between atoms: _170  and  _171
REMARK   70  A    between atoms: _173  and  _175
REMARK   71  A    between atoms: _175  and  _176
REMARK   72  A    between atoms: _175  and  _178
REMARK   73  A    between atoms: _178  and  _179
REMARK   74  A    between atoms: _182  and  _184
REMARK   75  A    between atoms: _184  and  _185
REMARK   76  A    between atoms: _184  and  _187
REMARK   77  A    between atoms: _187  and  _188
REMARK   78  A    between atoms: _193  and  _195
REMARK   79  A    between atoms: _195  and  _196
REMARK   80  A    between atoms: _195  and  _198
REMARK   81  A    between atoms: _198  and  _199
REMARK   82  A    between atoms: _199  and  _200
REMARK                            x       y       z     vdW  Elec       q    Type
REMARK                         _______ _______ _______ _____ _____    ______ ____
ROOT
ATOM      1  O   HOH     1      60.071  17.943   5.366  0.00  0.00    +0.000 OA
ENDROOT
TORSDOF 0
REMARK  Name = ../refined-set-2016/4ouj/4ouj_pocket.pdb
REMARK  82 active torsions:
REMARK  status: ('A' for Active; 'I' for Inactive)
REMARK    1  A    between atoms: _1  and  _3
REMARK    2  A    between atoms: _3  and  _4
REMARK    3  A    between atoms: _3  and  _6
REMARK    4  A    between atoms: _6  and  _7
REMARK    5  A    between atoms: _12  and  _14
REMARK    6  A    between atoms: _14  and  _15
REMARK    7  A    between atoms: _14  and  _17
REMARK    8  A    between atoms: _20  and  _22
REMARK    9  A    between atoms: _22  and  _23
REMARK   10  A    between atoms: _22  and  _25
REMARK   11  A    between atoms: _25  and  _26
REMARK   12  A    between atoms: _29  and  _31
REMARK   13  A    between atoms: _31  and  _32
REMARK   14  A    between atoms: _31  and  _34
REMARK   15  A    between atoms: _34  and  _35
REMARK   16  A    between atoms: _38  and  _40
REMARK   17  A    between atoms: _40  and  _41
REMARK   18  A    between atoms: _40  and  _43
REMARK   19  A    between atoms: _43  and  _44
REMARK   20  A    between atoms: _47  and  _49
REMARK   21  A    between atoms: _49  and  _50
REMARK   22  A    between atoms: _49  and  _52
REMARK   23  A    between atoms: _52  and  _53
REMARK   24  A    between atoms: _58  and  _59
REMARK   25  A    between atoms: _61  and  _63
REMARK   26  A    between atoms: _63  and  _64
REMARK   27  A    between atoms: _66  and  _68
REMARK   28  A    between atoms: _68  and  _69
REMARK   29  A    between atoms: _71  and  _73
REMARK   30  A    between atoms: _73  and  _74
REMARK   31  A    between atoms: _73  and  _76
REMARK   32  A    between atoms: _76  and  _77
REMARK   33  A    between atoms: _77  and  _78
REMARK   34  A    between atoms: _83  and  _85
REMARK   35  A    between atoms: _85  and  _86
REMARK   36  A    between atoms: _85  and  _88
REMARK   37  A    between atoms: _88  and  _89
REMARK   38  A    between atoms: _92  and  _94
REMARK   39  A    between atoms: _94  and  _95
REMARK   40  A    between atoms: _94  and  _97
REMARK   41  A    between atoms: _97  and  _98
REMARK   42  A    between atoms: _101  and  _103
REMARK   43  A    between atoms: _103  and  _104
REMARK   44  A    between atoms: _103  and  _106
REMARK   45  A    between atoms: _106  and  _107
REMARK   46  A    between atoms: _107  and  _108
REMARK   47  A    between atoms: _113  and  _115
REMARK   48  A    between atoms: _115  and  _116
REMARK   49  A    between atoms: _115  and  _118
REMARK   50  A    between atoms: _121  and  _123
REMARK   51  A    between atoms: _123  and  _124
REMARK   52  A    between atoms: _123  and  _126
REMARK   53  A    between atoms: _126  and  _127
REMARK   54  A    between atoms: _133  and  _135
REMARK   55  A    between atoms: _135  and  _136
REMARK   56  A    between atoms: _135  and  _138
REMARK   57  A    between atoms: _138  and  _139
REMARK   58  A    between atoms: _144  and  _146
REMARK   59  A    between atoms: _146  and  _147
REMARK   60  A    between atoms: _146  and  _149
REMARK   61  A    between atoms: _149  and  _150
REMARK   62  A    between atoms: _152  and  _154
REMARK   63  A    between atoms: _154  and  _155
REMARK   64  A    between atoms: _154  and  _157
REMARK   65  A    between atoms: _157  and  _158
REMARK   66  A    between atoms: _163  and  _165
REMARK   67  A    between atoms: _165  and  _166
REMARK   68  A    between atoms: _168  and  _170
REMARK   69  A    between atoms: _170  and  _171
REMARK   70  A    between atoms: _173  and  _175
REMARK   71  A    between atoms: _175  and  _176
REMARK   72  A    between atoms: _175  and  _178
REMARK   73  A    between atoms: _178  and  _179
REMARK   74  A    between atoms: _182  and  _184
REMARK   75  A    between atoms: _184  and  _185
REMARK   76  A    between atoms: _184  and  _187
REMARK   77  A    between atoms: _187  and  _188
REMARK   78  A    between atoms: _193  and  _195
REMARK   79  A    between atoms: _195  and  _196
REMARK   80  A    between atoms: _195  and  _198
REMARK   81  A    between atoms: _198  and  _199
REMARK   82  A    between atoms: _199  and  _200
REMARK                            x       y       z     vdW  Elec       q    Type
REMARK                         _______ _______ _______ _____ _____    ______ ____
ROOT
ATOM      1  O   HOH     1      55.617  16.607   8.881  0.00  0.00    +0.000 OA
ENDROOT
TORSDOF 0
