REMARK  Name = ../refined-set-2016/3d91/3d91_pocket.pdb
REMARK  255 active torsions:
REMARK  status: ('A' for Active; 'I' for Inactive)
REMARK    1  A    between atoms: _1  and  _3
REMARK    2  A    between atoms: _3  and  _4
REMARK    3  A    between atoms: _3  and  _6
REMARK    4  A    between atoms: _6  and  _7
REMARK    5  A    between atoms: _12  and  _13
REMARK    6  A    between atoms: _15  and  _17
REMARK    7  A    between atoms: _17  and  _18
REMARK    8  A    between atoms: _17  and  _20
REMARK    9  A    between atoms: _20  and  _21
REMARK   10  A    between atoms: _24  and  _26
REMARK   11  A    between atoms: _26  and  _27
REMARK   12  A    between atoms: _26  and  _29
REMARK   13  A    between atoms: _29  and  _30
REMARK   14  A    between atoms: _33  and  _35
REMARK   15  A    between atoms: _35  and  _36
REMARK   16  A    between atoms: _35  and  _38
REMARK   17  A    between atoms: _38  and  _39
REMARK   18  A    between atoms: _39  and  _40
REMARK   19  A    between atoms: _45  and  _47
REMARK   20  A    between atoms: _47  and  _48
REMARK   21  A    between atoms: _47  and  _50
REMARK   22  A    between atoms: _50  and  _51
REMARK   23  A    between atoms: _56  and  _57
REMARK   24  A    between atoms: _59  and  _61
REMARK   25  A    between atoms: _61  and  _62
REMARK   26  A    between atoms: _61  and  _64
REMARK   27  A    between atoms: _67  and  _69
REMARK   28  A    between atoms: _69  and  _70
REMARK   29  A    between atoms: _69  and  _72
REMARK   30  A    between atoms: _75  and  _77
REMARK   31  A    between atoms: _77  and  _78
REMARK   32  A    between atoms: _77  and  _80
REMARK   33  A    between atoms: _80  and  _81
REMARK   34  A    between atoms: _87  and  _89
REMARK   35  A    between atoms: _89  and  _90
REMARK   36  A    between atoms: _89  and  _92
REMARK   37  A    between atoms: _92  and  _93
REMARK   38  A    between atoms: _96  and  _98
REMARK   39  A    between atoms: _98  and  _99
REMARK   40  A    between atoms: _98  and  _101
REMARK   41  A    between atoms: _101  and  _102
REMARK   42  A    between atoms: _105  and  _107
REMARK   43  A    between atoms: _107  and  _108
REMARK   44  A    between atoms: _110  and  _112
REMARK   45  A    between atoms: _112  and  _113
REMARK   46  A    between atoms: _112  and  _115
REMARK   47  A    between atoms: _115  and  _116
REMARK   48  A    between atoms: _118  and  _120
REMARK   49  A    between atoms: _120  and  _121
REMARK   50  A    between atoms: _120  and  _123
REMARK   51  A    between atoms: _123  and  _124
REMARK   52  A    between atoms: _126  and  _128
REMARK   53  A    between atoms: _128  and  _129
REMARK   54  A    between atoms: _128  and  _131
REMARK   55  A    between atoms: _131  and  _132
REMARK   56  A    between atoms: _142  and  _144
REMARK   57  A    between atoms: _144  and  _145
REMARK   58  A    between atoms: _144  and  _147
REMARK   59  A    between atoms: _147  and  _148
REMARK   60  A    between atoms: _153  and  _155
REMARK   61  A    between atoms: _155  and  _156
REMARK   62  A    between atoms: _155  and  _158
REMARK   63  A    between atoms: _158  and  _159
REMARK   64  A    between atoms: _162  and  _164
REMARK   65  A    between atoms: _164  and  _165
REMARK   66  A    between atoms: _164  and  _167
REMARK   67  A    between atoms: _167  and  _168
REMARK   68  A    between atoms: _168  and  _169
REMARK   69  A    between atoms: _169  and  _170
REMARK   70  A    between atoms: _179  and  _181
REMARK   71  A    between atoms: _181  and  _182
REMARK   72  A    between atoms: _181  and  _184
REMARK   73  A    between atoms: _184  and  _185
REMARK   74  A    between atoms: _190  and  _191
REMARK   75  A    between atoms: _193  and  _195
REMARK   76  A    between atoms: _195  and  _196
REMARK   77  A    between atoms: _195  and  _198
REMARK   78  A    between atoms: _198  and  _199
REMARK   79  A    between atoms: _201  and  _203
REMARK   80  A    between atoms: _203  and  _204
REMARK   81  A    between atoms: _203  and  _206
REMARK   82  A    between atoms: _206  and  _207
REMARK   83  A    between atoms: _210  and  _212
REMARK   84  A    between atoms: _212  and  _213
REMARK   85  A    between atoms: _215  and  _217
REMARK   86  A    between atoms: _217  and  _218
REMARK   87  A    between atoms: _217  and  _220
REMARK   88  A    between atoms: _220  and  _221
REMARK   89  A    between atoms: _224  and  _226
REMARK   90  A    between atoms: _226  and  _227
REMARK   91  A    between atoms: _226  and  _229
REMARK   92  A    between atoms: _232  and  _234
REMARK   93  A    between atoms: _234  and  _235
REMARK   94  A    between atoms: _238  and  _240
REMARK   95  A    between atoms: _240  and  _241
REMARK   96  A    between atoms: _240  and  _243
REMARK   97  A    between atoms: _243  and  _244
REMARK   98  A    between atoms: _248  and  _249
REMARK   99  A    between atoms: _254  and  _256
REMARK  100  A    between atoms: _256  and  _257
REMARK  101  A    between atoms: _256  and  _259
REMARK  102  A    between atoms: _259  and  _260
REMARK  103  A    between atoms: _266  and  _268
REMARK  104  A    between atoms: _268  and  _269
REMARK  105  A    between atoms: _268  and  _271
REMARK  106  A    between atoms: _271  and  _272
REMARK  107  A    between atoms: _272  and  _273
REMARK  108  A    between atoms: _275  and  _277
REMARK  109  A    between atoms: _277  and  _278
REMARK  110  A    between atoms: _277  and  _280
REMARK  111  A    between atoms: _280  and  _281
REMARK  112  A    between atoms: _284  and  _286
REMARK  113  A    between atoms: _286  and  _287
REMARK  114  A    between atoms: _290  and  _292
REMARK  115  A    between atoms: _292  and  _293
REMARK  116  A    between atoms: _292  and  _295
REMARK  117  A    between atoms: _295  and  _296
REMARK  118  A    between atoms: _296  and  _297
REMARK  119  A    between atoms: _300  and  _302
REMARK  120  A    between atoms: _302  and  _303
REMARK  121  A    between atoms: _302  and  _305
REMARK  122  A    between atoms: _305  and  _306
REMARK  123  A    between atoms: _312  and  _314
REMARK  124  A    between atoms: _314  and  _315
REMARK  125  A    between atoms: _317  and  _319
REMARK  126  A    between atoms: _319  and  _320
REMARK  127  A    between atoms: _319  and  _322
REMARK  128  A    between atoms: _325  and  _327
REMARK  129  A    between atoms: _327  and  _328
REMARK  130  A    between atoms: _327  and  _330
REMARK  131  A    between atoms: _333  and  _335
REMARK  132  A    between atoms: _335  and  _336
REMARK  133  A    between atoms: _335  and  _338
REMARK  134  A    between atoms: _338  and  _339
REMARK  135  A    between atoms: _339  and  _340
REMARK  136  A    between atoms: _342  and  _344
REMARK  137  A    between atoms: _344  and  _345
REMARK  138  A    between atoms: _344  and  _347
REMARK  139  A    between atoms: _347  and  _348
REMARK  140  A    between atoms: _348  and  _349
REMARK  141  A    between atoms: _354  and  _356
REMARK  142  A    between atoms: _356  and  _357
REMARK  143  A    between atoms: _356  and  _359
REMARK  144  A    between atoms: _362  and  _364
REMARK  145  A    between atoms: _364  and  _365
REMARK  146  A    between atoms: _364  and  _367
REMARK  147  A    between atoms: _367  and  _368
REMARK  148  A    between atoms: _378  and  _380
REMARK  149  A    between atoms: _380  and  _381
REMARK  150  A    between atoms: _380  and  _383
REMARK  151  A    between atoms: _383  and  _384
REMARK  152  A    between atoms: _387  and  _389
REMARK  153  A    between atoms: _389  and  _390
REMARK  154  A    between atoms: _389  and  _392
REMARK  155  A    between atoms: _395  and  _397
REMARK  156  A    between atoms: _397  and  _398
REMARK  157  A    between atoms: _397  and  _400
REMARK  158  A    between atoms: _400  and  _401
REMARK  159  A    between atoms: _404  and  _406
REMARK  160  A    between atoms: _406  and  _407
REMARK  161  A    between atoms: _406  and  _409
REMARK  162  A    between atoms: _409  and  _410
REMARK  163  A    between atoms: _413  and  _415
REMARK  164  A    between atoms: _415  and  _416
REMARK  165  A    between atoms: _418  and  _420
REMARK  166  A    between atoms: _420  and  _421
REMARK  167  A    between atoms: _424  and  _426
REMARK  168  A    between atoms: _426  and  _427
REMARK  169  A    between atoms: _426  and  _429
REMARK  170  A    between atoms: _429  and  _430
REMARK  171  A    between atoms: _432  and  _434
REMARK  172  A    between atoms: _434  and  _435
REMARK  173  A    between atoms: _434  and  _437
REMARK  174  A    between atoms: _437  and  _438
REMARK  175  A    between atoms: _443  and  _444
REMARK  176  A    between atoms: _446  and  _448
REMARK  177  A    between atoms: _448  and  _449
REMARK  178  A    between atoms: _448  and  _451
REMARK  179  A    between atoms: _451  and  _452
REMARK  180  A    between atoms: _455  and  _457
REMARK  181  A    between atoms: _457  and  _458
REMARK  182  A    between atoms: _457  and  _460
REMARK  183  A    between atoms: _460  and  _461
REMARK  184  A    between atoms: _463  and  _465
REMARK  185  A    between atoms: _465  and  _466
REMARK  186  A    between atoms: _468  and  _470
REMARK  187  A    between atoms: _470  and  _471
REMARK  188  A    between atoms: _470  and  _473
REMARK  189  A    between atoms: _473  and  _474
REMARK  190  A    between atoms: _480  and  _482
REMARK  191  A    between atoms: _482  and  _483
REMARK  192  A    between atoms: _482  and  _485
REMARK  193  A    between atoms: _485  and  _486
REMARK  194  A    between atoms: _489  and  _491
REMARK  195  A    between atoms: _491  and  _492
REMARK  196  A    between atoms: _491  and  _494
REMARK  197  A    between atoms: _494  and  _495
REMARK  198  A    between atoms: _501  and  _503
REMARK  199  A    between atoms: _503  and  _504
REMARK  200  A    between atoms: _503  and  _506
REMARK  201  A    between atoms: _506  and  _507
REMARK  202  A    between atoms: _510  and  _512
REMARK  203  A    between atoms: _512  and  _513
REMARK  204  A    between atoms: _512  and  _515
REMARK  205  A    between atoms: _515  and  _516
REMARK  206  A    between atoms: _519  and  _521
REMARK  207  A    between atoms: _521  and  _522
REMARK  208  A    between atoms: _525  and  _527
REMARK  209  A    between atoms: _527  and  _528
REMARK  210  A    between atoms: _527  and  _530
REMARK  211  A    between atoms: _530  and  _531
REMARK  212  A    between atoms: _534  and  _536
REMARK  213  A    between atoms: _536  and  _537
REMARK  214  A    between atoms: _536  and  _539
REMARK  215  A    between atoms: _539  and  _540
REMARK  216  A    between atoms: _545  and  _547
REMARK  217  A    between atoms: _547  and  _548
REMARK  218  A    between atoms: _551  and  _553
REMARK  219  A    between atoms: _553  and  _554
REMARK  220  A    between atoms: _553  and  _556
REMARK  221  A    between atoms: _556  and  _557
REMARK  222  A    between atoms: _557  and  _558
REMARK  223  A    between atoms: _560  and  _562
REMARK  224  A    between atoms: _562  and  _563
REMARK  225  A    between atoms: _562  and  _565
REMARK  226  A    between atoms: _565  and  _566
REMARK  227  A    between atoms: _569  and  _571
REMARK  228  A    between atoms: _571  and  _572
REMARK  229  A    between atoms: _571  and  _574
REMARK  230  A    between atoms: _574  and  _575
REMARK  231  A    between atoms: _579  and  _580
REMARK  232  A    between atoms: _585  and  _587
REMARK  233  A    between atoms: _587  and  _588
REMARK  234  A    between atoms: _587  and  _590
REMARK  235  A    between atoms: _590  and  _591
REMARK  236  A    between atoms: _594  and  _596
REMARK  237  A    between atoms: _596  and  _597
REMARK  238  A    between atoms: _599  and  _601
REMARK  239  A    between atoms: _601  and  _602
REMARK  240  A    between atoms: _601  and  _604
REMARK  241  A    between atoms: _604  and  _605
REMARK  242  A    between atoms: _608  and  _610
REMARK  243  A    between atoms: _610  and  _611
REMARK  244  A    between atoms: _610  and  _613
REMARK  245  A    between atoms: _613  and  _614
REMARK  246  A    between atoms: _624  and  _626
REMARK  247  A    between atoms: _626  and  _627
REMARK  248  A    between atoms: _630  and  _632
REMARK  249  A    between atoms: _632  and  _633
REMARK  250  A    between atoms: _632  and  _635
REMARK  251  A    between atoms: _635  and  _636
REMARK  252  A    between atoms: _639  and  _641
REMARK  253  A    between atoms: _641  and  _642
REMARK  254  A    between atoms: _644  and  _646
REMARK  255  A    between atoms: _646  and  _647
REMARK                            x       y       z     vdW  Elec       q    Type
REMARK                         _______ _______ _______ _____ _____    ______ ____
ROOT
ATOM      1  CG  TYR A   1       7.884  12.690  -7.674  0.00  0.00    -0.020 A 
ATOM      2  CD2 TYR A   1       9.140  13.276  -7.464  0.00  0.00    -0.001 A 
ATOM      3  CE2 TYR A   1      10.247  12.524  -7.174  0.00  0.00    +0.036 A 
ATOM      4  CZ  TYR A   1      10.124  11.139  -7.092  0.00  0.00    +0.134 A 
ATOM      5  CE1 TYR A   1       8.916  10.526  -7.295  0.00  0.00    +0.036 A 
ATOM      6  CD1 TYR A   1       7.779  11.309  -7.599  0.00  0.00    -0.001 A 
ENDROOT
BRANCH   4   7
ATOM      7  OH  TYR A   1      11.246  10.412  -6.797  0.00  0.00    -0.506 OA
ATOM      8  HH  TYR A   1      12.015  11.025  -6.686  0.00  0.00    +0.292 HD
ENDBRANCH   4   7
BRANCH   1   9
ATOM      9  CB  TYR A   1       6.704  13.541  -8.011  0.00  0.00    +0.051 C 
BRANCH   9  10
ATOM     10  CA  TYR A   1       6.722  13.983  -9.466  0.00  0.00    +0.137 C 
BRANCH  10  11
ATOM     11  N   TYR A   1       5.560  14.798  -9.723  0.00  0.00    -0.239 NA
ATOM     12  H   TYR A   1       4.637  14.446  -9.399  0.00  0.00    +0.142 HD
ENDBRANCH  10  11
BRANCH  10  13
ATOM     13  C   TYR A   1       6.680  12.721 -10.317  0.00  0.00    +0.224 C 
ATOM     14  O   TYR A   1       5.856  11.851 -10.060  0.00  0.00    -0.287 OA
ENDBRANCH  10  13
ENDBRANCH   9  10
ENDBRANCH   1   9
TORSDOF 5
REMARK  Name = ../refined-set-2016/3d91/3d91_pocket.pdb
REMARK  255 active torsions:
REMARK  status: ('A' for Active; 'I' for Inactive)
REMARK    1  A    between atoms: _1  and  _3
REMARK    2  A    between atoms: _3  and  _4
REMARK    3  A    between atoms: _3  and  _6
REMARK    4  A    between atoms: _6  and  _7
REMARK    5  A    between atoms: _12  and  _13
REMARK    6  A    between atoms: _15  and  _17
REMARK    7  A    between atoms: _17  and  _18
REMARK    8  A    between atoms: _17  and  _20
REMARK    9  A    between atoms: _20  and  _21
REMARK   10  A    between atoms: _24  and  _26
REMARK   11  A    between atoms: _26  and  _27
REMARK   12  A    between atoms: _26  and  _29
REMARK   13  A    between atoms: _29  and  _30
REMARK   14  A    between atoms: _33  and  _35
REMARK   15  A    between atoms: _35  and  _36
REMARK   16  A    between atoms: _35  and  _38
REMARK   17  A    between atoms: _38  and  _39
REMARK   18  A    between atoms: _39  and  _40
REMARK   19  A    between atoms: _45  and  _47
REMARK   20  A    between atoms: _47  and  _48
REMARK   21  A    between atoms: _47  and  _50
REMARK   22  A    between atoms: _50  and  _51
REMARK   23  A    between atoms: _56  and  _57
REMARK   24  A    between atoms: _59  and  _61
REMARK   25  A    between atoms: _61  and  _62
REMARK   26  A    between atoms: _61  and  _64
REMARK   27  A    between atoms: _67  and  _69
REMARK   28  A    between atoms: _69  and  _70
REMARK   29  A    between atoms: _69  and  _72
REMARK   30  A    between atoms: _75  and  _77
REMARK   31  A    between atoms: _77  and  _78
REMARK   32  A    between atoms: _77  and  _80
REMARK   33  A    between atoms: _80  and  _81
REMARK   34  A    between atoms: _87  and  _89
REMARK   35  A    between atoms: _89  and  _90
REMARK   36  A    between atoms: _89  and  _92
REMARK   37  A    between atoms: _92  and  _93
REMARK   38  A    between atoms: _96  and  _98
REMARK   39  A    between atoms: _98  and  _99
REMARK   40  A    between atoms: _98  and  _101
REMARK   41  A    between atoms: _101  and  _102
REMARK   42  A    between atoms: _105  and  _107
REMARK   43  A    between atoms: _107  and  _108
REMARK   44  A    between atoms: _110  and  _112
REMARK   45  A    between atoms: _112  and  _113
REMARK   46  A    between atoms: _112  and  _115
REMARK   47  A    between atoms: _115  and  _116
REMARK   48  A    between atoms: _118  and  _120
REMARK   49  A    between atoms: _120  and  _121
REMARK   50  A    between atoms: _120  and  _123
REMARK   51  A    between atoms: _123  and  _124
REMARK   52  A    between atoms: _126  and  _128
REMARK   53  A    between atoms: _128  and  _129
REMARK   54  A    between atoms: _128  and  _131
REMARK   55  A    between atoms: _131  and  _132
REMARK   56  A    between atoms: _142  and  _144
REMARK   57  A    between atoms: _144  and  _145
REMARK   58  A    between atoms: _144  and  _147
REMARK   59  A    between atoms: _147  and  _148
REMARK   60  A    between atoms: _153  and  _155
REMARK   61  A    between atoms: _155  and  _156
REMARK   62  A    between atoms: _155  and  _158
REMARK   63  A    between atoms: _158  and  _159
REMARK   64  A    between atoms: _162  and  _164
REMARK   65  A    between atoms: _164  and  _165
REMARK   66  A    between atoms: _164  and  _167
REMARK   67  A    between atoms: _167  and  _168
REMARK   68  A    between atoms: _168  and  _169
REMARK   69  A    between atoms: _169  and  _170
REMARK   70  A    between atoms: _179  and  _181
REMARK   71  A    between atoms: _181  and  _182
REMARK   72  A    between atoms: _181  and  _184
REMARK   73  A    between atoms: _184  and  _185
REMARK   74  A    between atoms: _190  and  _191
REMARK   75  A    between atoms: _193  and  _195
REMARK   76  A    between atoms: _195  and  _196
REMARK   77  A    between atoms: _195  and  _198
REMARK   78  A    between atoms: _198  and  _199
REMARK   79  A    between atoms: _201  and  _203
REMARK   80  A    between atoms: _203  and  _204
REMARK   81  A    between atoms: _203  and  _206
REMARK   82  A    between atoms: _206  and  _207
REMARK   83  A    between atoms: _210  and  _212
REMARK   84  A    between atoms: _212  and  _213
REMARK   85  A    between atoms: _215  and  _217
REMARK   86  A    between atoms: _217  and  _218
REMARK   87  A    between atoms: _217  and  _220
REMARK   88  A    between atoms: _220  and  _221
REMARK   89  A    between atoms: _224  and  _226
REMARK   90  A    between atoms: _226  and  _227
REMARK   91  A    between atoms: _226  and  _229
REMARK   92  A    between atoms: _232  and  _234
REMARK   93  A    between atoms: _234  and  _235
REMARK   94  A    between atoms: _238  and  _240
REMARK   95  A    between atoms: _240  and  _241
REMARK   96  A    between atoms: _240  and  _243
REMARK   97  A    between atoms: _243  and  _244
REMARK   98  A    between atoms: _248  and  _249
REMARK   99  A    between atoms: _254  and  _256
REMARK  100  A    between atoms: _256  and  _257
REMARK  101  A    between atoms: _256  and  _259
REMARK  102  A    between atoms: _259  and  _260
REMARK  103  A    between atoms: _266  and  _268
REMARK  104  A    between atoms: _268  and  _269
REMARK  105  A    between atoms: _268  and  _271
REMARK  106  A    between atoms: _271  and  _272
REMARK  107  A    between atoms: _272  and  _273
REMARK  108  A    between atoms: _275  and  _277
REMARK  109  A    between atoms: _277  and  _278
REMARK  110  A    between atoms: _277  and  _280
REMARK  111  A    between atoms: _280  and  _281
REMARK  112  A    between atoms: _284  and  _286
REMARK  113  A    between atoms: _286  and  _287
REMARK  114  A    between atoms: _290  and  _292
REMARK  115  A    between atoms: _292  and  _293
REMARK  116  A    between atoms: _292  and  _295
REMARK  117  A    between atoms: _295  and  _296
REMARK  118  A    between atoms: _296  and  _297
REMARK  119  A    between atoms: _300  and  _302
REMARK  120  A    between atoms: _302  and  _303
REMARK  121  A    between atoms: _302  and  _305
REMARK  122  A    between atoms: _305  and  _306
REMARK  123  A    between atoms: _312  and  _314
REMARK  124  A    between atoms: _314  and  _315
REMARK  125  A    between atoms: _317  and  _319
REMARK  126  A    between atoms: _319  and  _320
REMARK  127  A    between atoms: _319  and  _322
REMARK  128  A    between atoms: _325  and  _327
REMARK  129  A    between atoms: _327  and  _328
REMARK  130  A    between atoms: _327  and  _330
REMARK  131  A    between atoms: _333  and  _335
REMARK  132  A    between atoms: _335  and  _336
REMARK  133  A    between atoms: _335  and  _338
REMARK  134  A    between atoms: _338  and  _339
REMARK  135  A    between atoms: _339  and  _340
REMARK  136  A    between atoms: _342  and  _344
REMARK  137  A    between atoms: _344  and  _345
REMARK  138  A    between atoms: _344  and  _347
REMARK  139  A    between atoms: _347  and  _348
REMARK  140  A    between atoms: _348  and  _349
REMARK  141  A    between atoms: _354  and  _356
REMARK  142  A    between atoms: _356  and  _357
REMARK  143  A    between atoms: _356  and  _359
REMARK  144  A    between atoms: _362  and  _364
REMARK  145  A    between atoms: _364  and  _365
REMARK  146  A    between atoms: _364  and  _367
REMARK  147  A    between atoms: _367  and  _368
REMARK  148  A    between atoms: _378  and  _380
REMARK  149  A    between atoms: _380  and  _381
REMARK  150  A    between atoms: _380  and  _383
REMARK  151  A    between atoms: _383  and  _384
REMARK  152  A    between atoms: _387  and  _389
REMARK  153  A    between atoms: _389  and  _390
REMARK  154  A    between atoms: _389  and  _392
REMARK  155  A    between atoms: _395  and  _397
REMARK  156  A    between atoms: _397  and  _398
REMARK  157  A    between atoms: _397  and  _400
REMARK  158  A    between atoms: _400  and  _401
REMARK  159  A    between atoms: _404  and  _406
REMARK  160  A    between atoms: _406  and  _407
REMARK  161  A    between atoms: _406  and  _409
REMARK  162  A    between atoms: _409  and  _410
REMARK  163  A    between atoms: _413  and  _415
REMARK  164  A    between atoms: _415  and  _416
REMARK  165  A    between atoms: _418  and  _420
REMARK  166  A    between atoms: _420  and  _421
REMARK  167  A    between atoms: _424  and  _426
REMARK  168  A    between atoms: _426  and  _427
REMARK  169  A    between atoms: _426  and  _429
REMARK  170  A    between atoms: _429  and  _430
REMARK  171  A    between atoms: _432  and  _434
REMARK  172  A    between atoms: _434  and  _435
REMARK  173  A    between atoms: _434  and  _437
REMARK  174  A    between atoms: _437  and  _438
REMARK  175  A    between atoms: _443  and  _444
REMARK  176  A    between atoms: _446  and  _448
REMARK  177  A    between atoms: _448  and  _449
REMARK  178  A    between atoms: _448  and  _451
REMARK  179  A    between atoms: _451  and  _452
REMARK  180  A    between atoms: _455  and  _457
REMARK  181  A    between atoms: _457  and  _458
REMARK  182  A    between atoms: _457  and  _460
REMARK  183  A    between atoms: _460  and  _461
REMARK  184  A    between atoms: _463  and  _465
REMARK  185  A    between atoms: _465  and  _466
REMARK  186  A    between atoms: _468  and  _470
REMARK  187  A    between atoms: _470  and  _471
REMARK  188  A    between atoms: _470  and  _473
REMARK  189  A    between atoms: _473  and  _474
REMARK  190  A    between atoms: _480  and  _482
REMARK  191  A    between atoms: _482  and  _483
REMARK  192  A    between atoms: _482  and  _485
REMARK  193  A    between atoms: _485  and  _486
REMARK  194  A    between atoms: _489  and  _491
REMARK  195  A    between atoms: _491  and  _492
REMARK  196  A    between atoms: _491  and  _494
REMARK  197  A    between atoms: _494  and  _495
REMARK  198  A    between atoms: _501  and  _503
REMARK  199  A    between atoms: _503  and  _504
REMARK  200  A    between atoms: _503  and  _506
REMARK  201  A    between atoms: _506  and  _507
REMARK  202  A    between atoms: _510  and  _512
REMARK  203  A    between atoms: _512  and  _513
REMARK  204  A    between atoms: _512  and  _515
REMARK  205  A    between atoms: _515  and  _516
REMARK  206  A    between atoms: _519  and  _521
REMARK  207  A    between atoms: _521  and  _522
REMARK  208  A    between atoms: _525  and  _527
REMARK  209  A    between atoms: _527  and  _528
REMARK  210  A    between atoms: _527  and  _530
REMARK  211  A    between atoms: _530  and  _531
REMARK  212  A    between atoms: _534  and  _536
REMARK  213  A    between atoms: _536  and  _537
REMARK  214  A    between atoms: _536  and  _539
REMARK  215  A    between atoms: _539  and  _540
REMARK  216  A    between atoms: _545  and  _547
REMARK  217  A    between atoms: _547  and  _548
REMARK  218  A    between atoms: _551  and  _553
REMARK  219  A    between atoms: _553  and  _554
REMARK  220  A    between atoms: _553  and  _556
REMARK  221  A    between atoms: _556  and  _557
REMARK  222  A    between atoms: _557  and  _558
REMARK  223  A    between atoms: _560  and  _562
REMARK  224  A    between atoms: _562  and  _563
REMARK  225  A    between atoms: _562  and  _565
REMARK  226  A    between atoms: _565  and  _566
REMARK  227  A    between atoms: _569  and  _571
REMARK  228  A    between atoms: _571  and  _572
REMARK  229  A    between atoms: _571  and  _574
REMARK  230  A    between atoms: _574  and  _575
REMARK  231  A    between atoms: _579  and  _580
REMARK  232  A    between atoms: _585  and  _587
REMARK  233  A    between atoms: _587  and  _588
REMARK  234  A    between atoms: _587  and  _590
REMARK  235  A    between atoms: _590  and  _591
REMARK  236  A    between atoms: _594  and  _596
REMARK  237  A    between atoms: _596  and  _597
REMARK  238  A    between atoms: _599  and  _601
REMARK  239  A    between atoms: _601  and  _602
REMARK  240  A    between atoms: _601  and  _604
REMARK  241  A    between atoms: _604  and  _605
REMARK  242  A    between atoms: _608  and  _610
REMARK  243  A    between atoms: _610  and  _611
REMARK  244  A    between atoms: _610  and  _613
REMARK  245  A    between atoms: _613  and  _614
REMARK  246  A    between atoms: _624  and  _626
REMARK  247  A    between atoms: _626  and  _627
REMARK  248  A    between atoms: _630  and  _632
REMARK  249  A    between atoms: _632  and  _633
REMARK  250  A    between atoms: _632  and  _635
REMARK  251  A    between atoms: _635  and  _636
REMARK  252  A    between atoms: _639  and  _641
REMARK  253  A    between atoms: _641  and  _642
REMARK  254  A    between atoms: _644  and  _646
REMARK  255  A    between atoms: _646  and  _647
REMARK                            x       y       z     vdW  Elec       q    Type
REMARK                         _______ _______ _______ _____ _____    ______ ____
ROOT
ATOM      1  CA  GLN A   3       2.358  11.636  -7.916  0.00  0.00    +0.149 C 
ENDROOT
BRANCH   1   2
ATOM      2  C   GLN A   3       2.086  13.128  -8.199  0.00  0.00    +0.241 C 
ATOM      3  N   TYR A   4       0.878  13.567  -7.901  0.00  0.00    -0.298 N 
ATOM      4  H   TYR A   4       0.186  12.909  -7.489  0.00  0.00    +0.150 HD
ATOM      5  O   GLN A   3       2.946  13.870  -8.663  0.00  0.00    -0.273 OA
BRANCH   3   6
ATOM      6  CA  TYR A   4       0.493  14.945  -8.135  0.00  0.00    +0.141 C 
BRANCH   6   7
ATOM      7  C   TYR A   4      -0.035  15.473  -6.802  0.00  0.00    +0.227 C 
ATOM      8  O   TYR A   4      -1.141  15.155  -6.377  0.00  0.00    -0.286 OA
ENDBRANCH   6   7
BRANCH   6   9
ATOM      9  CB  TYR A   4      -0.568  15.005  -9.232  0.00  0.00    +0.054 C 
BRANCH   9  10
ATOM     10  CG  TYR A   4      -0.073  14.750 -10.637  0.00  0.00    -0.020 A 
ATOM     11  CD2 TYR A   4      -0.188  13.485 -11.212  0.00  0.00    -0.001 A 
ATOM     12  CE2 TYR A   4       0.239  13.241 -12.478  0.00  0.00    +0.036 A 
ATOM     13  CZ  TYR A   4       0.807  14.257 -13.248  0.00  0.00    +0.134 A 
ATOM     14  CE1 TYR A   4       0.907  15.534 -12.721  0.00  0.00    +0.036 A 
ATOM     15  CD1 TYR A   4       0.468  15.768 -11.402  0.00  0.00    -0.001 A 
BRANCH  13  16
ATOM     16  OH  TYR A   4       1.247  13.969 -14.554  0.00  0.00    -0.506 OA
ATOM     17  HH  TYR A   4       1.622  14.789 -14.963  0.00  0.00    +0.292 HD
ENDBRANCH  13  16
ENDBRANCH   9  10
ENDBRANCH   6   9
ENDBRANCH   3   6
ENDBRANCH   1   2
BRANCH   1  19
ATOM     18  C   THR A   2       2.061   9.944  -9.646  0.00  0.00    +0.243 C 
ATOM     19  N   GLN A   3       2.770  10.936  -9.113  0.00  0.00    -0.297 N 
ATOM     20  H   GLN A   3       3.657  11.220  -9.576  0.00  0.00    +0.150 HD
ATOM     21  O   THR A   2       1.014   9.549  -9.169  0.00  0.00    -0.273 OA
BRANCH  18  22
ATOM     22  CA  THR A   2       2.620   9.333 -10.927  0.00  0.00    +0.176 C 
BRANCH  22  24
ATOM     23  C   ASP A   1       3.183  10.638 -12.939  0.00  0.00    +0.239 C 
ATOM     24  N   THR A   2       3.455  10.300 -11.674  0.00  0.00    -0.295 N 
ATOM     25  H   THR A   2       4.276  10.729 -11.202  0.00  0.00    +0.150 HD
ATOM     26  O   ASP A   1       2.175  10.226 -13.524  0.00  0.00    -0.274 OA
BRANCH  23  27
ATOM     27  CA  ASP A   1       4.154  11.585 -13.701  0.00  0.00    +0.156 C 
BRANCH  27  28
ATOM     28  N   ASP A   1       5.475  11.862 -13.095  0.00  0.00    -0.238 NA
ATOM     29  H   ASP A   1       5.663  12.834 -12.777  0.00  0.00    +0.142 HD
ENDBRANCH  27  28
BRANCH  27  30
ATOM     30  CB  ASP A   1       4.307  11.006 -15.124  0.00  0.00    +0.140 C 
BRANCH  30  31
ATOM     31  CG  ASP A   1       4.537  12.063 -16.211  0.00  0.00    +0.367 C 
ATOM     32  OD2 ASP A   1       4.564  13.325 -15.965  0.00  0.00    -0.246 OA
ATOM     33  OD1 ASP A   1       4.715  11.568 -17.357  0.00  0.00    -0.246 OA
ENDBRANCH  30  31
ENDBRANCH  27  30
ENDBRANCH  23  27
ENDBRANCH  22  24
BRANCH  22  34
ATOM     34  CB  THR A   2       3.372   7.952 -10.573  0.00  0.00    +0.137 C 
ATOM     35  CG2 THR A   2       3.606   7.096 -11.797  0.00  0.00    +0.034 C 
BRANCH  34  36
ATOM     36  OG1 THR A   2       4.643   8.209  -9.937  0.00  0.00    -0.382 OA
ATOM     37  HG1 THR A   2       5.086   7.349  -9.729  0.00  0.00    +0.210 HD
ENDBRANCH  34  36
ENDBRANCH  22  34
ENDBRANCH  18  22
ENDBRANCH   1  19
BRANCH   1  38
ATOM     38  CB  GLN A   3       3.457  11.493  -6.875  0.00  0.00    +0.039 C 
BRANCH  38  39
ATOM     39  CG  GLN A   3       3.925  10.052  -6.710  0.00  0.00    +0.087 C 
BRANCH  39  40
ATOM     40  CD  GLN A   3       4.779   9.878  -5.495  0.00  0.00    +0.219 C 
ATOM     41  OE1 GLN A   3       4.828  10.767  -4.643  0.00  0.00    -0.275 OA
ATOM     42  NE2 GLN A   3       5.465   8.730  -5.391  0.00  0.00    -0.329 N 
ATOM     43 HE21 GLN A   3       6.072   8.560  -4.564  0.00  0.00    +0.145 HD
ATOM     44 HE22 GLN A   3       5.390   8.010  -6.138  0.00  0.00    +0.145 HD
ENDBRANCH  39  40
ENDBRANCH  38  39
ENDBRANCH   1  38
TORSDOF 18
REMARK  Name = ../refined-set-2016/3d91/3d91_pocket.pdb
REMARK  255 active torsions:
REMARK  status: ('A' for Active; 'I' for Inactive)
REMARK    1  A    between atoms: _1  and  _3
REMARK    2  A    between atoms: _3  and  _4
REMARK    3  A    between atoms: _3  and  _6
REMARK    4  A    between atoms: _6  and  _7
REMARK    5  A    between atoms: _12  and  _13
REMARK    6  A    between atoms: _15  and  _17
REMARK    7  A    between atoms: _17  and  _18
REMARK    8  A    between atoms: _17  and  _20
REMARK    9  A    between atoms: _20  and  _21
REMARK   10  A    between atoms: _24  and  _26
REMARK   11  A    between atoms: _26  and  _27
REMARK   12  A    between atoms: _26  and  _29
REMARK   13  A    between atoms: _29  and  _30
REMARK   14  A    between atoms: _33  and  _35
REMARK   15  A    between atoms: _35  and  _36
REMARK   16  A    between atoms: _35  and  _38
REMARK   17  A    between atoms: _38  and  _39
REMARK   18  A    between atoms: _39  and  _40
REMARK   19  A    between atoms: _45  and  _47
REMARK   20  A    between atoms: _47  and  _48
REMARK   21  A    between atoms: _47  and  _50
REMARK   22  A    between atoms: _50  and  _51
REMARK   23  A    between atoms: _56  and  _57
REMARK   24  A    between atoms: _59  and  _61
REMARK   25  A    between atoms: _61  and  _62
REMARK   26  A    between atoms: _61  and  _64
REMARK   27  A    between atoms: _67  and  _69
REMARK   28  A    between atoms: _69  and  _70
REMARK   29  A    between atoms: _69  and  _72
REMARK   30  A    between atoms: _75  and  _77
REMARK   31  A    between atoms: _77  and  _78
REMARK   32  A    between atoms: _77  and  _80
REMARK   33  A    between atoms: _80  and  _81
REMARK   34  A    between atoms: _87  and  _89
REMARK   35  A    between atoms: _89  and  _90
REMARK   36  A    between atoms: _89  and  _92
REMARK   37  A    between atoms: _92  and  _93
REMARK   38  A    between atoms: _96  and  _98
REMARK   39  A    between atoms: _98  and  _99
REMARK   40  A    between atoms: _98  and  _101
REMARK   41  A    between atoms: _101  and  _102
REMARK   42  A    between atoms: _105  and  _107
REMARK   43  A    between atoms: _107  and  _108
REMARK   44  A    between atoms: _110  and  _112
REMARK   45  A    between atoms: _112  and  _113
REMARK   46  A    between atoms: _112  and  _115
REMARK   47  A    between atoms: _115  and  _116
REMARK   48  A    between atoms: _118  and  _120
REMARK   49  A    between atoms: _120  and  _121
REMARK   50  A    between atoms: _120  and  _123
REMARK   51  A    between atoms: _123  and  _124
REMARK   52  A    between atoms: _126  and  _128
REMARK   53  A    between atoms: _128  and  _129
REMARK   54  A    between atoms: _128  and  _131
REMARK   55  A    between atoms: _131  and  _132
REMARK   56  A    between atoms: _142  and  _144
REMARK   57  A    between atoms: _144  and  _145
REMARK   58  A    between atoms: _144  and  _147
REMARK   59  A    between atoms: _147  and  _148
REMARK   60  A    between atoms: _153  and  _155
REMARK   61  A    between atoms: _155  and  _156
REMARK   62  A    between atoms: _155  and  _158
REMARK   63  A    between atoms: _158  and  _159
REMARK   64  A    between atoms: _162  and  _164
REMARK   65  A    between atoms: _164  and  _165
REMARK   66  A    between atoms: _164  and  _167
REMARK   67  A    between atoms: _167  and  _168
REMARK   68  A    between atoms: _168  and  _169
REMARK   69  A    between atoms: _169  and  _170
REMARK   70  A    between atoms: _179  and  _181
REMARK   71  A    between atoms: _181  and  _182
REMARK   72  A    between atoms: _181  and  _184
REMARK   73  A    between atoms: _184  and  _185
REMARK   74  A    between atoms: _190  and  _191
REMARK   75  A    between atoms: _193  and  _195
REMARK   76  A    between atoms: _195  and  _196
REMARK   77  A    between atoms: _195  and  _198
REMARK   78  A    between atoms: _198  and  _199
REMARK   79  A    between atoms: _201  and  _203
REMARK   80  A    between atoms: _203  and  _204
REMARK   81  A    between atoms: _203  and  _206
REMARK   82  A    between atoms: _206  and  _207
REMARK   83  A    between atoms: _210  and  _212
REMARK   84  A    between atoms: _212  and  _213
REMARK   85  A    between atoms: _215  and  _217
REMARK   86  A    between atoms: _217  and  _218
REMARK   87  A    between atoms: _217  and  _220
REMARK   88  A    between atoms: _220  and  _221
REMARK   89  A    between atoms: _224  and  _226
REMARK   90  A    between atoms: _226  and  _227
REMARK   91  A    between atoms: _226  and  _229
REMARK   92  A    between atoms: _232  and  _234
REMARK   93  A    between atoms: _234  and  _235
REMARK   94  A    between atoms: _238  and  _240
REMARK   95  A    between atoms: _240  and  _241
REMARK   96  A    between atoms: _240  and  _243
REMARK   97  A    between atoms: _243  and  _244
REMARK   98  A    between atoms: _248  and  _249
REMARK   99  A    between atoms: _254  and  _256
REMARK  100  A    between atoms: _256  and  _257
REMARK  101  A    between atoms: _256  and  _259
REMARK  102  A    between atoms: _259  and  _260
REMARK  103  A    between atoms: _266  and  _268
REMARK  104  A    between atoms: _268  and  _269
REMARK  105  A    between atoms: _268  and  _271
REMARK  106  A    between atoms: _271  and  _272
REMARK  107  A    between atoms: _272  and  _273
REMARK  108  A    between atoms: _275  and  _277
REMARK  109  A    between atoms: _277  and  _278
REMARK  110  A    between atoms: _277  and  _280
REMARK  111  A    between atoms: _280  and  _281
REMARK  112  A    between atoms: _284  and  _286
REMARK  113  A    between atoms: _286  and  _287
REMARK  114  A    between atoms: _290  and  _292
REMARK  115  A    between atoms: _292  and  _293
REMARK  116  A    between atoms: _292  and  _295
REMARK  117  A    between atoms: _295  and  _296
REMARK  118  A    between atoms: _296  and  _297
REMARK  119  A    between atoms: _300  and  _302
REMARK  120  A    between atoms: _302  and  _303
REMARK  121  A    between atoms: _302  and  _305
REMARK  122  A    between atoms: _305  and  _306
REMARK  123  A    between atoms: _312  and  _314
REMARK  124  A    between atoms: _314  and  _315
REMARK  125  A    between atoms: _317  and  _319
REMARK  126  A    between atoms: _319  and  _320
REMARK  127  A    between atoms: _319  and  _322
REMARK  128  A    between atoms: _325  and  _327
REMARK  129  A    between atoms: _327  and  _328
REMARK  130  A    between atoms: _327  and  _330
REMARK  131  A    between atoms: _333  and  _335
REMARK  132  A    between atoms: _335  and  _336
REMARK  133  A    between atoms: _335  and  _338
REMARK  134  A    between atoms: _338  and  _339
REMARK  135  A    between atoms: _339  and  _340
REMARK  136  A    between atoms: _342  and  _344
REMARK  137  A    between atoms: _344  and  _345
REMARK  138  A    between atoms: _344  and  _347
REMARK  139  A    between atoms: _347  and  _348
REMARK  140  A    between atoms: _348  and  _349
REMARK  141  A    between atoms: _354  and  _356
REMARK  142  A    between atoms: _356  and  _357
REMARK  143  A    between atoms: _356  and  _359
REMARK  144  A    between atoms: _362  and  _364
REMARK  145  A    between atoms: _364  and  _365
REMARK  146  A    between atoms: _364  and  _367
REMARK  147  A    between atoms: _367  and  _368
REMARK  148  A    between atoms: _378  and  _380
REMARK  149  A    between atoms: _380  and  _381
REMARK  150  A    between atoms: _380  and  _383
REMARK  151  A    between atoms: _383  and  _384
REMARK  152  A    between atoms: _387  and  _389
REMARK  153  A    between atoms: _389  and  _390
REMARK  154  A    between atoms: _389  and  _392
REMARK  155  A    between atoms: _395  and  _397
REMARK  156  A    between atoms: _397  and  _398
REMARK  157  A    between atoms: _397  and  _400
REMARK  158  A    between atoms: _400  and  _401
REMARK  159  A    between atoms: _404  and  _406
REMARK  160  A    between atoms: _406  and  _407
REMARK  161  A    between atoms: _406  and  _409
REMARK  162  A    between atoms: _409  and  _410
REMARK  163  A    between atoms: _413  and  _415
REMARK  164  A    between atoms: _415  and  _416
REMARK  165  A    between atoms: _418  and  _420
REMARK  166  A    between atoms: _420  and  _421
REMARK  167  A    between atoms: _424  and  _426
REMARK  168  A    between atoms: _426  and  _427
REMARK  169  A    between atoms: _426  and  _429
REMARK  170  A    between atoms: _429  and  _430
REMARK  171  A    between atoms: _432  and  _434
REMARK  172  A    between atoms: _434  and  _435
REMARK  173  A    between atoms: _434  and  _437
REMARK  174  A    between atoms: _437  and  _438
REMARK  175  A    between atoms: _443  and  _444
REMARK  176  A    between atoms: _446  and  _448
REMARK  177  A    between atoms: _448  and  _449
REMARK  178  A    between atoms: _448  and  _451
REMARK  179  A    between atoms: _451  and  _452
REMARK  180  A    between atoms: _455  and  _457
REMARK  181  A    between atoms: _457  and  _458
REMARK  182  A    between atoms: _457  and  _460
REMARK  183  A    between atoms: _460  and  _461
REMARK  184  A    between atoms: _463  and  _465
REMARK  185  A    between atoms: _465  and  _466
REMARK  186  A    between atoms: _468  and  _470
REMARK  187  A    between atoms: _470  and  _471
REMARK  188  A    between atoms: _470  and  _473
REMARK  189  A    between atoms: _473  and  _474
REMARK  190  A    between atoms: _480  and  _482
REMARK  191  A    between atoms: _482  and  _483
REMARK  192  A    between atoms: _482  and  _485
REMARK  193  A    between atoms: _485  and  _486
REMARK  194  A    between atoms: _489  and  _491
REMARK  195  A    between atoms: _491  and  _492
REMARK  196  A    between atoms: _491  and  _494
REMARK  197  A    between atoms: _494  and  _495
REMARK  198  A    between atoms: _501  and  _503
REMARK  199  A    between atoms: _503  and  _504
REMARK  200  A    between atoms: _503  and  _506
REMARK  201  A    between atoms: _506  and  _507
REMARK  202  A    between atoms: _510  and  _512
REMARK  203  A    between atoms: _512  and  _513
REMARK  204  A    between atoms: _512  and  _515
REMARK  205  A    between atoms: _515  and  _516
REMARK  206  A    between atoms: _519  and  _521
REMARK  207  A    between atoms: _521  and  _522
REMARK  208  A    between atoms: _525  and  _527
REMARK  209  A    between atoms: _527  and  _528
REMARK  210  A    between atoms: _527  and  _530
REMARK  211  A    between atoms: _530  and  _531
REMARK  212  A    between atoms: _534  and  _536
REMARK  213  A    between atoms: _536  and  _537
REMARK  214  A    between atoms: _536  and  _539
REMARK  215  A    between atoms: _539  and  _540
REMARK  216  A    between atoms: _545  and  _547
REMARK  217  A    between atoms: _547  and  _548
REMARK  218  A    between atoms: _551  and  _553
REMARK  219  A    between atoms: _553  and  _554
REMARK  220  A    between atoms: _553  and  _556
REMARK  221  A    between atoms: _556  and  _557
REMARK  222  A    between atoms: _557  and  _558
REMARK  223  A    between atoms: _560  and  _562
REMARK  224  A    between atoms: _562  and  _563
REMARK  225  A    between atoms: _562  and  _565
REMARK  226  A    between atoms: _565  and  _566
REMARK  227  A    between atoms: _569  and  _571
REMARK  228  A    between atoms: _571  and  _572
REMARK  229  A    between atoms: _571  and  _574
REMARK  230  A    between atoms: _574  and  _575
REMARK  231  A    between atoms: _579  and  _580
REMARK  232  A    between atoms: _585  and  _587
REMARK  233  A    between atoms: _587  and  _588
REMARK  234  A    between atoms: _587  and  _590
REMARK  235  A    between atoms: _590  and  _591
REMARK  236  A    between atoms: _594  and  _596
REMARK  237  A    between atoms: _596  and  _597
REMARK  238  A    between atoms: _599  and  _601
REMARK  239  A    between atoms: _601  and  _602
REMARK  240  A    between atoms: _601  and  _604
REMARK  241  A    between atoms: _604  and  _605
REMARK  242  A    between atoms: _608  and  _610
REMARK  243  A    between atoms: _610  and  _611
REMARK  244  A    between atoms: _610  and  _613
REMARK  245  A    between atoms: _613  and  _614
REMARK  246  A    between atoms: _624  and  _626
REMARK  247  A    between atoms: _626  and  _627
REMARK  248  A    between atoms: _630  and  _632
REMARK  249  A    between atoms: _632  and  _633
REMARK  250  A    between atoms: _632  and  _635
REMARK  251  A    between atoms: _635  and  _636
REMARK  252  A    between atoms: _639  and  _641
REMARK  253  A    between atoms: _641  and  _642
REMARK  254  A    between atoms: _644  and  _646
REMARK  255  A    between atoms: _646  and  _647
REMARK                            x       y       z     vdW  Elec       q    Type
REMARK                         _______ _______ _______ _____ _____    ______ ____
ROOT
ATOM      1  CA  ASP A   4      -8.390  12.174  -4.555  0.00  0.00    +0.160 C 
ENDROOT
BRANCH   1   3
ATOM      2  C   PHE A   3      -7.183  14.334  -4.803  0.00  0.00    +0.241 C 
ATOM      3  N   ASP A   4      -7.873  13.489  -4.044  0.00  0.00    -0.297 N 
ATOM      4  H   ASP A   4      -8.063  13.749  -3.055  0.00  0.00    +0.150 HD
ATOM      5  O   PHE A   3      -7.040  14.149  -5.999  0.00  0.00    -0.273 OA
BRANCH   2   6
ATOM      6  CA  PHE A   3      -6.514  15.553  -4.079  0.00  0.00    +0.153 C 
BRANCH   6   9
ATOM      7  C   VAL A   2      -4.433  14.753  -3.028  0.00  0.00    +0.241 C 
ATOM      8  O   VAL A   2      -5.002  14.464  -1.953  0.00  0.00    -0.273 OA
ATOM      9  N   PHE A   3      -5.057  15.421  -4.042  0.00  0.00    -0.297 N 
ATOM     10  H   PHE A   3      -4.487  15.844  -4.802  0.00  0.00    +0.150 HD
BRANCH   7  11
ATOM     11  CA  VAL A   2      -2.931  14.345  -3.183  0.00  0.00    +0.148 C 
BRANCH  11  13
ATOM     12  C   VAL A   1      -1.811  15.806  -1.574  0.00  0.00    +0.238 C 
ATOM     13  N   VAL A   2      -2.306  14.611  -1.904  0.00  0.00    -0.297 N 
ATOM     14  H   VAL A   2      -2.240  13.837  -1.212  0.00  0.00    +0.150 HD
ATOM     15  O   VAL A   1      -1.664  16.713  -2.390  0.00  0.00    -0.274 OA
BRANCH  12  16
ATOM     16  CA  VAL A   1      -1.440  16.018  -0.111  0.00  0.00    +0.145 C 
BRANCH  16  17
ATOM     17  CB  VAL A   1      -2.678  16.479   0.637  0.00  0.00    +0.025 C 
ATOM     18  CG2 VAL A   1      -2.458  16.392   2.114  0.00  0.00    +0.002 C 
ATOM     19  CG1 VAL A   1      -3.040  17.935   0.230  0.00  0.00    +0.002 C 
ENDBRANCH  16  17
BRANCH  16  20
ATOM     20  N   VAL A   1      -0.406  17.004   0.026  0.00  0.00    -0.238 NA
ATOM     21  H   VAL A   1      -0.426  17.829  -0.607  0.00  0.00    +0.142 HD
ENDBRANCH  16  20
ENDBRANCH  12  16
ENDBRANCH  11  13
BRANCH  11  22
ATOM     22  CB  VAL A   2      -2.776  12.803  -3.489  0.00  0.00    +0.027 C 
ATOM     23  CG2 VAL A   2      -1.362  12.466  -4.018  0.00  0.00    +0.002 C 
ATOM     24  CG1 VAL A   2      -3.835  12.286  -4.425  0.00  0.00    +0.002 C 
ENDBRANCH  11  22
ENDBRANCH   7  11
ENDBRANCH   6   9
BRANCH   6  25
ATOM     25  CB  PHE A   3      -6.993  16.983  -4.547  0.00  0.00    +0.055 C 
BRANCH  25  26
ATOM     26  CG  PHE A   3      -6.295  18.148  -3.721  0.00  0.00    -0.020 A 
ATOM     27  CD2 PHE A   3      -6.957  18.796  -2.674  0.00  0.00    -0.004 A 
ATOM     28  CE2 PHE A   3      -6.313  19.734  -1.880  0.00  0.00    -0.000 A 
ATOM     29  CZ  PHE A   3      -4.960  20.041  -2.111  0.00  0.00    -0.000 A 
ATOM     30  CE1 PHE A   3      -4.271  19.386  -3.127  0.00  0.00    -0.000 A 
ATOM     31  CD1 PHE A   3      -4.948  18.442  -3.926  0.00  0.00    -0.004 A 
ENDBRANCH  25  26
ENDBRANCH   6  25
ENDBRANCH   2   6
ENDBRANCH   1   3
BRANCH   1  32
ATOM     32  C   ASP A   4      -9.874  12.306  -4.824  0.00  0.00    +0.241 C 
ATOM     33  O   ASP A   4     -10.649  12.425  -3.906  0.00  0.00    -0.273 OA
ATOM     34  N   THR A   5     -10.307  12.331  -6.077  0.00  0.00    -0.295 N 
ATOM     35  H   THR A   5      -9.639  12.449  -6.865  0.00  0.00    +0.150 HD
BRANCH  34  36
ATOM     36  CA  THR A   5     -11.745  12.189  -6.332  0.00  0.00    +0.176 C 
BRANCH  36  37
ATOM     37  C   THR A   5     -12.282  10.772  -6.050  0.00  0.00    +0.243 C 
ATOM     38  N   GLY A   6     -11.404   9.771  -5.913  0.00  0.00    -0.295 N 
ATOM     39  H   GLY A   6     -10.387   9.969  -6.000  0.00  0.00    +0.150 HD
ATOM     40  O   THR A   5     -13.501  10.596  -5.915  0.00  0.00    -0.273 OA
BRANCH  38  41
ATOM     41  CA  GLY A   6     -11.862   8.365  -5.636  0.00  0.00    +0.176 C 
BRANCH  41  42
ATOM     42  C   GLY A   6     -12.127   7.999  -4.171  0.00  0.00    +0.243 C 
ATOM     43  N   SER A   7     -11.818   8.919  -3.259  0.00  0.00    -0.295 N 
ATOM     44  H   SER A   7     -11.345   9.788  -3.580  0.00  0.00    +0.150 HD
ATOM     45  O   GLY A   6     -12.598   6.903  -3.866  0.00  0.00    -0.273 OA
BRANCH  43  46
ATOM     46  CA  SER A   7     -12.107   8.776  -1.828  0.00  0.00    +0.178 C 
BRANCH  46  47
ATOM     47  C   SER A   7     -12.644  10.086  -1.244  0.00  0.00    +0.243 C 
ATOM     48  N   SER A   8     -13.275   9.991  -0.062  0.00  0.00    -0.296 N 
ATOM     49  H   SER A   8     -13.304   9.069   0.419  0.00  0.00    +0.150 HD
ATOM     50  O   SER A   7     -12.468  11.170  -1.858  0.00  0.00    -0.273 OA
BRANCH  48  51
ATOM     51  CA  SER A   8     -13.933  11.156   0.583  0.00  0.00    +0.166 C 
BRANCH  51  52
ATOM     52  C   SER A   8     -13.372  11.686   1.931  0.00  0.00    +0.229 C 
ATOM     53  O   SER A   8     -13.995  12.546   2.547  0.00  0.00    -0.286 OA
ENDBRANCH  51  52
BRANCH  51  54
ATOM     54  CB  SER A   8     -15.428  10.865   0.773  0.00  0.00    +0.165 C 
BRANCH  54  55
ATOM     55  OG  SER A   8     -16.075  10.674  -0.477  0.00  0.00    -0.380 OA
ATOM     56  H   SER A   8     -17.036  10.488  -0.325  0.00  0.00    +0.211 HD
ENDBRANCH  54  55
ENDBRANCH  51  54
ENDBRANCH  48  51
ENDBRANCH  46  47
BRANCH  46  57
ATOM     57  CB  SER A   7     -10.847   8.343  -1.080  0.00  0.00    +0.166 C 
BRANCH  57  58
ATOM     58  OG  SER A   7     -10.117   9.433  -0.551  0.00  0.00    -0.380 OA
ATOM     59  H   SER A   7      -9.315   9.094  -0.080  0.00  0.00    +0.211 HD
ENDBRANCH  57  58
ENDBRANCH  46  57
ENDBRANCH  43  46
ENDBRANCH  41  42
ENDBRANCH  38  41
ENDBRANCH  36  37
BRANCH  36  60
ATOM     60  CB  THR A   5     -12.177  12.590  -7.779  0.00  0.00    +0.137 C 
ATOM     61  CG2 THR A   5     -12.058  14.122  -8.020  0.00  0.00    +0.034 C 
BRANCH  60  62
ATOM     62  OG1 THR A   5     -11.367  11.896  -8.721  0.00  0.00    -0.382 OA
ATOM     63  HG1 THR A   5     -11.640  12.149  -9.639  0.00  0.00    +0.210 HD
ENDBRANCH  60  62
ENDBRANCH  36  60
ENDBRANCH  34  36
ENDBRANCH   1  32
BRANCH   1  64
ATOM     64  CB  ASP A   4      -8.128  11.168  -3.460  0.00  0.00    +0.143 C 
BRANCH  64  65
ATOM     65  CG  ASP A   4      -8.547   9.726  -3.802  0.00  0.00    +0.367 C 
ATOM     66  OD2 ASP A   4      -8.840   9.008  -2.803  0.00  0.00    -0.246 OA
ATOM     67  OD1 ASP A   4      -8.560   9.306  -4.999  0.00  0.00    -0.246 OA
ENDBRANCH  64  65
ENDBRANCH   1  64
TORSDOF 28
REMARK  Name = ../refined-set-2016/3d91/3d91_pocket.pdb
REMARK  255 active torsions:
REMARK  status: ('A' for Active; 'I' for Inactive)
REMARK    1  A    between atoms: _1  and  _3
REMARK    2  A    between atoms: _3  and  _4
REMARK    3  A    between atoms: _3  and  _6
REMARK    4  A    between atoms: _6  and  _7
REMARK    5  A    between atoms: _12  and  _13
REMARK    6  A    between atoms: _15  and  _17
REMARK    7  A    between atoms: _17  and  _18
REMARK    8  A    between atoms: _17  and  _20
REMARK    9  A    between atoms: _20  and  _21
REMARK   10  A    between atoms: _24  and  _26
REMARK   11  A    between atoms: _26  and  _27
REMARK   12  A    between atoms: _26  and  _29
REMARK   13  A    between atoms: _29  and  _30
REMARK   14  A    between atoms: _33  and  _35
REMARK   15  A    between atoms: _35  and  _36
REMARK   16  A    between atoms: _35  and  _38
REMARK   17  A    between atoms: _38  and  _39
REMARK   18  A    between atoms: _39  and  _40
REMARK   19  A    between atoms: _45  and  _47
REMARK   20  A    between atoms: _47  and  _48
REMARK   21  A    between atoms: _47  and  _50
REMARK   22  A    between atoms: _50  and  _51
REMARK   23  A    between atoms: _56  and  _57
REMARK   24  A    between atoms: _59  and  _61
REMARK   25  A    between atoms: _61  and  _62
REMARK   26  A    between atoms: _61  and  _64
REMARK   27  A    between atoms: _67  and  _69
REMARK   28  A    between atoms: _69  and  _70
REMARK   29  A    between atoms: _69  and  _72
REMARK   30  A    between atoms: _75  and  _77
REMARK   31  A    between atoms: _77  and  _78
REMARK   32  A    between atoms: _77  and  _80
REMARK   33  A    between atoms: _80  and  _81
REMARK   34  A    between atoms: _87  and  _89
REMARK   35  A    between atoms: _89  and  _90
REMARK   36  A    between atoms: _89  and  _92
REMARK   37  A    between atoms: _92  and  _93
REMARK   38  A    between atoms: _96  and  _98
REMARK   39  A    between atoms: _98  and  _99
REMARK   40  A    between atoms: _98  and  _101
REMARK   41  A    between atoms: _101  and  _102
REMARK   42  A    between atoms: _105  and  _107
REMARK   43  A    between atoms: _107  and  _108
REMARK   44  A    between atoms: _110  and  _112
REMARK   45  A    between atoms: _112  and  _113
REMARK   46  A    between atoms: _112  and  _115
REMARK   47  A    between atoms: _115  and  _116
REMARK   48  A    between atoms: _118  and  _120
REMARK   49  A    between atoms: _120  and  _121
REMARK   50  A    between atoms: _120  and  _123
REMARK   51  A    between atoms: _123  and  _124
REMARK   52  A    between atoms: _126  and  _128
REMARK   53  A    between atoms: _128  and  _129
REMARK   54  A    between atoms: _128  and  _131
REMARK   55  A    between atoms: _131  and  _132
REMARK   56  A    between atoms: _142  and  _144
REMARK   57  A    between atoms: _144  and  _145
REMARK   58  A    between atoms: _144  and  _147
REMARK   59  A    between atoms: _147  and  _148
REMARK   60  A    between atoms: _153  and  _155
REMARK   61  A    between atoms: _155  and  _156
REMARK   62  A    between atoms: _155  and  _158
REMARK   63  A    between atoms: _158  and  _159
REMARK   64  A    between atoms: _162  and  _164
REMARK   65  A    between atoms: _164  and  _165
REMARK   66  A    between atoms: _164  and  _167
REMARK   67  A    between atoms: _167  and  _168
REMARK   68  A    between atoms: _168  and  _169
REMARK   69  A    between atoms: _169  and  _170
REMARK   70  A    between atoms: _179  and  _181
REMARK   71  A    between atoms: _181  and  _182
REMARK   72  A    between atoms: _181  and  _184
REMARK   73  A    between atoms: _184  and  _185
REMARK   74  A    between atoms: _190  and  _191
REMARK   75  A    between atoms: _193  and  _195
REMARK   76  A    between atoms: _195  and  _196
REMARK   77  A    between atoms: _195  and  _198
REMARK   78  A    between atoms: _198  and  _199
REMARK   79  A    between atoms: _201  and  _203
REMARK   80  A    between atoms: _203  and  _204
REMARK   81  A    between atoms: _203  and  _206
REMARK   82  A    between atoms: _206  and  _207
REMARK   83  A    between atoms: _210  and  _212
REMARK   84  A    between atoms: _212  and  _213
REMARK   85  A    between atoms: _215  and  _217
REMARK   86  A    between atoms: _217  and  _218
REMARK   87  A    between atoms: _217  and  _220
REMARK   88  A    between atoms: _220  and  _221
REMARK   89  A    between atoms: _224  and  _226
REMARK   90  A    between atoms: _226  and  _227
REMARK   91  A    between atoms: _226  and  _229
REMARK   92  A    between atoms: _232  and  _234
REMARK   93  A    between atoms: _234  and  _235
REMARK   94  A    between atoms: _238  and  _240
REMARK   95  A    between atoms: _240  and  _241
REMARK   96  A    between atoms: _240  and  _243
REMARK   97  A    between atoms: _243  and  _244
REMARK   98  A    between atoms: _248  and  _249
REMARK   99  A    between atoms: _254  and  _256
REMARK  100  A    between atoms: _256  and  _257
REMARK  101  A    between atoms: _256  and  _259
REMARK  102  A    between atoms: _259  and  _260
REMARK  103  A    between atoms: _266  and  _268
REMARK  104  A    between atoms: _268  and  _269
REMARK  105  A    between atoms: _268  and  _271
REMARK  106  A    between atoms: _271  and  _272
REMARK  107  A    between atoms: _272  and  _273
REMARK  108  A    between atoms: _275  and  _277
REMARK  109  A    between atoms: _277  and  _278
REMARK  110  A    between atoms: _277  and  _280
REMARK  111  A    between atoms: _280  and  _281
REMARK  112  A    between atoms: _284  and  _286
REMARK  113  A    between atoms: _286  and  _287
REMARK  114  A    between atoms: _290  and  _292
REMARK  115  A    between atoms: _292  and  _293
REMARK  116  A    between atoms: _292  and  _295
REMARK  117  A    between atoms: _295  and  _296
REMARK  118  A    between atoms: _296  and  _297
REMARK  119  A    between atoms: _300  and  _302
REMARK  120  A    between atoms: _302  and  _303
REMARK  121  A    between atoms: _302  and  _305
REMARK  122  A    between atoms: _305  and  _306
REMARK  123  A    between atoms: _312  and  _314
REMARK  124  A    between atoms: _314  and  _315
REMARK  125  A    between atoms: _317  and  _319
REMARK  126  A    between atoms: _319  and  _320
REMARK  127  A    between atoms: _319  and  _322
REMARK  128  A    between atoms: _325  and  _327
REMARK  129  A    between atoms: _327  and  _328
REMARK  130  A    between atoms: _327  and  _330
REMARK  131  A    between atoms: _333  and  _335
REMARK  132  A    between atoms: _335  and  _336
REMARK  133  A    between atoms: _335  and  _338
REMARK  134  A    between atoms: _338  and  _339
REMARK  135  A    between atoms: _339  and  _340
REMARK  136  A    between atoms: _342  and  _344
REMARK  137  A    between atoms: _344  and  _345
REMARK  138  A    between atoms: _344  and  _347
REMARK  139  A    between atoms: _347  and  _348
REMARK  140  A    between atoms: _348  and  _349
REMARK  141  A    between atoms: _354  and  _356
REMARK  142  A    between atoms: _356  and  _357
REMARK  143  A    between atoms: _356  and  _359
REMARK  144  A    between atoms: _362  and  _364
REMARK  145  A    between atoms: _364  and  _365
REMARK  146  A    between atoms: _364  and  _367
REMARK  147  A    between atoms: _367  and  _368
REMARK  148  A    between atoms: _378  and  _380
REMARK  149  A    between atoms: _380  and  _381
REMARK  150  A    between atoms: _380  and  _383
REMARK  151  A    between atoms: _383  and  _384
REMARK  152  A    between atoms: _387  and  _389
REMARK  153  A    between atoms: _389  and  _390
REMARK  154  A    between atoms: _389  and  _392
REMARK  155  A    between atoms: _395  and  _397
REMARK  156  A    between atoms: _397  and  _398
REMARK  157  A    between atoms: _397  and  _400
REMARK  158  A    between atoms: _400  and  _401
REMARK  159  A    between atoms: _404  and  _406
REMARK  160  A    between atoms: _406  and  _407
REMARK  161  A    between atoms: _406  and  _409
REMARK  162  A    between atoms: _409  and  _410
REMARK  163  A    between atoms: _413  and  _415
REMARK  164  A    between atoms: _415  and  _416
REMARK  165  A    between atoms: _418  and  _420
REMARK  166  A    between atoms: _420  and  _421
REMARK  167  A    between atoms: _424  and  _426
REMARK  168  A    between atoms: _426  and  _427
REMARK  169  A    between atoms: _426  and  _429
REMARK  170  A    between atoms: _429  and  _430
REMARK  171  A    between atoms: _432  and  _434
REMARK  172  A    between atoms: _434  and  _435
REMARK  173  A    between atoms: _434  and  _437
REMARK  174  A    between atoms: _437  and  _438
REMARK  175  A    between atoms: _443  and  _444
REMARK  176  A    between atoms: _446  and  _448
REMARK  177  A    between atoms: _448  and  _449
REMARK  178  A    between atoms: _448  and  _451
REMARK  179  A    between atoms: _451  and  _452
REMARK  180  A    between atoms: _455  and  _457
REMARK  181  A    between atoms: _457  and  _458
REMARK  182  A    between atoms: _457  and  _460
REMARK  183  A    between atoms: _460  and  _461
REMARK  184  A    between atoms: _463  and  _465
REMARK  185  A    between atoms: _465  and  _466
REMARK  186  A    between atoms: _468  and  _470
REMARK  187  A    between atoms: _470  and  _471
REMARK  188  A    between atoms: _470  and  _473
REMARK  189  A    between atoms: _473  and  _474
REMARK  190  A    between atoms: _480  and  _482
REMARK  191  A    between atoms: _482  and  _483
REMARK  192  A    between atoms: _482  and  _485
REMARK  193  A    between atoms: _485  and  _486
REMARK  194  A    between atoms: _489  and  _491
REMARK  195  A    between atoms: _491  and  _492
REMARK  196  A    between atoms: _491  and  _494
REMARK  197  A    between atoms: _494  and  _495
REMARK  198  A    between atoms: _501  and  _503
REMARK  199  A    between atoms: _503  and  _504
REMARK  200  A    between atoms: _503  and  _506
REMARK  201  A    between atoms: _506  and  _507
REMARK  202  A    between atoms: _510  and  _512
REMARK  203  A    between atoms: _512  and  _513
REMARK  204  A    between atoms: _512  and  _515
REMARK  205  A    between atoms: _515  and  _516
REMARK  206  A    between atoms: _519  and  _521
REMARK  207  A    between atoms: _521  and  _522
REMARK  208  A    between atoms: _525  and  _527
REMARK  209  A    between atoms: _527  and  _528
REMARK  210  A    between atoms: _527  and  _530
REMARK  211  A    between atoms: _530  and  _531
REMARK  212  A    between atoms: _534  and  _536
REMARK  213  A    between atoms: _536  and  _537
REMARK  214  A    between atoms: _536  and  _539
REMARK  215  A    between atoms: _539  and  _540
REMARK  216  A    between atoms: _545  and  _547
REMARK  217  A    between atoms: _547  and  _548
REMARK  218  A    between atoms: _551  and  _553
REMARK  219  A    between atoms: _553  and  _554
REMARK  220  A    between atoms: _553  and  _556
REMARK  221  A    between atoms: _556  and  _557
REMARK  222  A    between atoms: _557  and  _558
REMARK  223  A    between atoms: _560  and  _562
REMARK  224  A    between atoms: _562  and  _563
REMARK  225  A    between atoms: _562  and  _565
REMARK  226  A    between atoms: _565  and  _566
REMARK  227  A    between atoms: _569  and  _571
REMARK  228  A    between atoms: _571  and  _572
REMARK  229  A    between atoms: _571  and  _574
REMARK  230  A    between atoms: _574  and  _575
REMARK  231  A    between atoms: _579  and  _580
REMARK  232  A    between atoms: _585  and  _587
REMARK  233  A    between atoms: _587  and  _588
REMARK  234  A    between atoms: _587  and  _590
REMARK  235  A    between atoms: _590  and  _591
REMARK  236  A    between atoms: _594  and  _596
REMARK  237  A    between atoms: _596  and  _597
REMARK  238  A    between atoms: _599  and  _601
REMARK  239  A    between atoms: _601  and  _602
REMARK  240  A    between atoms: _601  and  _604
REMARK  241  A    between atoms: _604  and  _605
REMARK  242  A    between atoms: _608  and  _610
REMARK  243  A    between atoms: _610  and  _611
REMARK  244  A    between atoms: _610  and  _613
REMARK  245  A    between atoms: _613  and  _614
REMARK  246  A    between atoms: _624  and  _626
REMARK  247  A    between atoms: _626  and  _627
REMARK  248  A    between atoms: _630  and  _632
REMARK  249  A    between atoms: _632  and  _633
REMARK  250  A    between atoms: _632  and  _635
REMARK  251  A    between atoms: _635  and  _636
REMARK  252  A    between atoms: _639  and  _641
REMARK  253  A    between atoms: _641  and  _642
REMARK  254  A    between atoms: _644  and  _646
REMARK  255  A    between atoms: _646  and  _647
REMARK                            x       y       z     vdW  Elec       q    Type
REMARK                         _______ _______ _______ _____ _____    ______ ____
ROOT
ATOM      1  CG  TRP A   1      -5.397  10.470   5.790  0.00  0.00    -0.002 A 
ATOM      2  CD2 TRP A   1      -4.066  10.266   5.426  0.00  0.00    +0.013 A 
ATOM      3  CE3 TRP A   1      -2.894  10.274   6.159  0.00  0.00    +0.001 A 
ATOM      4  CZ3 TRP A   1      -1.734   9.860   5.552  0.00  0.00    +0.000 A 
ATOM      5  CH2 TRP A   1      -1.736   9.353   4.278  0.00  0.00    +0.001 A 
ATOM      6  CZ2 TRP A   1      -2.883   9.277   3.559  0.00  0.00    +0.017 A 
ATOM      7  CE2 TRP A   1      -4.047   9.746   4.165  0.00  0.00    +0.056 A 
ATOM      8  NE1 TRP A   1      -5.346   9.694   3.696  0.00  0.00    -0.352 N 
ATOM      9  HE1 TRP A   1      -5.661   9.345   2.768  0.00  0.00    +0.166 HD
ATOM     10  CD1 TRP A   1      -6.152  10.204   4.716  0.00  0.00    +0.068 A 
ENDROOT
BRANCH   1  11
ATOM     11  CB  TRP A   1      -5.824  11.106   7.002  0.00  0.00    +0.053 C 
BRANCH  11  12
ATOM     12  CA  TRP A   1      -5.815  12.654   6.696  0.00  0.00    +0.137 C 
BRANCH  12  13
ATOM     13  N   TRP A   1      -6.693  12.902   5.528  0.00  0.00    -0.239 NA
ATOM     14  H   TRP A   1      -6.309  12.926   4.562  0.00  0.00    +0.142 HD
ENDBRANCH  12  13
BRANCH  12  15
ATOM     15  C   TRP A   1      -4.370  13.059   6.482  0.00  0.00    +0.224 C 
ATOM     16  O   TRP A   1      -3.961  13.115   5.430  0.00  0.00    -0.287 OA
ENDBRANCH  12  15
ENDBRANCH  11  12
ENDBRANCH   1  11
TORSDOF 4
REMARK  Name = ../refined-set-2016/3d91/3d91_pocket.pdb
REMARK  255 active torsions:
REMARK  status: ('A' for Active; 'I' for Inactive)
REMARK    1  A    between atoms: _1  and  _3
REMARK    2  A    between atoms: _3  and  _4
REMARK    3  A    between atoms: _3  and  _6
REMARK    4  A    between atoms: _6  and  _7
REMARK    5  A    between atoms: _12  and  _13
REMARK    6  A    between atoms: _15  and  _17
REMARK    7  A    between atoms: _17  and  _18
REMARK    8  A    between atoms: _17  and  _20
REMARK    9  A    between atoms: _20  and  _21
REMARK   10  A    between atoms: _24  and  _26
REMARK   11  A    between atoms: _26  and  _27
REMARK   12  A    between atoms: _26  and  _29
REMARK   13  A    between atoms: _29  and  _30
REMARK   14  A    between atoms: _33  and  _35
REMARK   15  A    between atoms: _35  and  _36
REMARK   16  A    between atoms: _35  and  _38
REMARK   17  A    between atoms: _38  and  _39
REMARK   18  A    between atoms: _39  and  _40
REMARK   19  A    between atoms: _45  and  _47
REMARK   20  A    between atoms: _47  and  _48
REMARK   21  A    between atoms: _47  and  _50
REMARK   22  A    between atoms: _50  and  _51
REMARK   23  A    between atoms: _56  and  _57
REMARK   24  A    between atoms: _59  and  _61
REMARK   25  A    between atoms: _61  and  _62
REMARK   26  A    between atoms: _61  and  _64
REMARK   27  A    between atoms: _67  and  _69
REMARK   28  A    between atoms: _69  and  _70
REMARK   29  A    between atoms: _69  and  _72
REMARK   30  A    between atoms: _75  and  _77
REMARK   31  A    between atoms: _77  and  _78
REMARK   32  A    between atoms: _77  and  _80
REMARK   33  A    between atoms: _80  and  _81
REMARK   34  A    between atoms: _87  and  _89
REMARK   35  A    between atoms: _89  and  _90
REMARK   36  A    between atoms: _89  and  _92
REMARK   37  A    between atoms: _92  and  _93
REMARK   38  A    between atoms: _96  and  _98
REMARK   39  A    between atoms: _98  and  _99
REMARK   40  A    between atoms: _98  and  _101
REMARK   41  A    between atoms: _101  and  _102
REMARK   42  A    between atoms: _105  and  _107
REMARK   43  A    between atoms: _107  and  _108
REMARK   44  A    between atoms: _110  and  _112
REMARK   45  A    between atoms: _112  and  _113
REMARK   46  A    between atoms: _112  and  _115
REMARK   47  A    between atoms: _115  and  _116
REMARK   48  A    between atoms: _118  and  _120
REMARK   49  A    between atoms: _120  and  _121
REMARK   50  A    between atoms: _120  and  _123
REMARK   51  A    between atoms: _123  and  _124
REMARK   52  A    between atoms: _126  and  _128
REMARK   53  A    between atoms: _128  and  _129
REMARK   54  A    between atoms: _128  and  _131
REMARK   55  A    between atoms: _131  and  _132
REMARK   56  A    between atoms: _142  and  _144
REMARK   57  A    between atoms: _144  and  _145
REMARK   58  A    between atoms: _144  and  _147
REMARK   59  A    between atoms: _147  and  _148
REMARK   60  A    between atoms: _153  and  _155
REMARK   61  A    between atoms: _155  and  _156
REMARK   62  A    between atoms: _155  and  _158
REMARK   63  A    between atoms: _158  and  _159
REMARK   64  A    between atoms: _162  and  _164
REMARK   65  A    between atoms: _164  and  _165
REMARK   66  A    between atoms: _164  and  _167
REMARK   67  A    between atoms: _167  and  _168
REMARK   68  A    between atoms: _168  and  _169
REMARK   69  A    between atoms: _169  and  _170
REMARK   70  A    between atoms: _179  and  _181
REMARK   71  A    between atoms: _181  and  _182
REMARK   72  A    between atoms: _181  and  _184
REMARK   73  A    between atoms: _184  and  _185
REMARK   74  A    between atoms: _190  and  _191
REMARK   75  A    between atoms: _193  and  _195
REMARK   76  A    between atoms: _195  and  _196
REMARK   77  A    between atoms: _195  and  _198
REMARK   78  A    between atoms: _198  and  _199
REMARK   79  A    between atoms: _201  and  _203
REMARK   80  A    between atoms: _203  and  _204
REMARK   81  A    between atoms: _203  and  _206
REMARK   82  A    between atoms: _206  and  _207
REMARK   83  A    between atoms: _210  and  _212
REMARK   84  A    between atoms: _212  and  _213
REMARK   85  A    between atoms: _215  and  _217
REMARK   86  A    between atoms: _217  and  _218
REMARK   87  A    between atoms: _217  and  _220
REMARK   88  A    between atoms: _220  and  _221
REMARK   89  A    between atoms: _224  and  _226
REMARK   90  A    between atoms: _226  and  _227
REMARK   91  A    between atoms: _226  and  _229
REMARK   92  A    between atoms: _232  and  _234
REMARK   93  A    between atoms: _234  and  _235
REMARK   94  A    between atoms: _238  and  _240
REMARK   95  A    between atoms: _240  and  _241
REMARK   96  A    between atoms: _240  and  _243
REMARK   97  A    between atoms: _243  and  _244
REMARK   98  A    between atoms: _248  and  _249
REMARK   99  A    between atoms: _254  and  _256
REMARK  100  A    between atoms: _256  and  _257
REMARK  101  A    between atoms: _256  and  _259
REMARK  102  A    between atoms: _259  and  _260
REMARK  103  A    between atoms: _266  and  _268
REMARK  104  A    between atoms: _268  and  _269
REMARK  105  A    between atoms: _268  and  _271
REMARK  106  A    between atoms: _271  and  _272
REMARK  107  A    between atoms: _272  and  _273
REMARK  108  A    between atoms: _275  and  _277
REMARK  109  A    between atoms: _277  and  _278
REMARK  110  A    between atoms: _277  and  _280
REMARK  111  A    between atoms: _280  and  _281
REMARK  112  A    between atoms: _284  and  _286
REMARK  113  A    between atoms: _286  and  _287
REMARK  114  A    between atoms: _290  and  _292
REMARK  115  A    between atoms: _292  and  _293
REMARK  116  A    between atoms: _292  and  _295
REMARK  117  A    between atoms: _295  and  _296
REMARK  118  A    between atoms: _296  and  _297
REMARK  119  A    between atoms: _300  and  _302
REMARK  120  A    between atoms: _302  and  _303
REMARK  121  A    between atoms: _302  and  _305
REMARK  122  A    between atoms: _305  and  _306
REMARK  123  A    between atoms: _312  and  _314
REMARK  124  A    between atoms: _314  and  _315
REMARK  125  A    between atoms: _317  and  _319
REMARK  126  A    between atoms: _319  and  _320
REMARK  127  A    between atoms: _319  and  _322
REMARK  128  A    between atoms: _325  and  _327
REMARK  129  A    between atoms: _327  and  _328
REMARK  130  A    between atoms: _327  and  _330
REMARK  131  A    between atoms: _333  and  _335
REMARK  132  A    between atoms: _335  and  _336
REMARK  133  A    between atoms: _335  and  _338
REMARK  134  A    between atoms: _338  and  _339
REMARK  135  A    between atoms: _339  and  _340
REMARK  136  A    between atoms: _342  and  _344
REMARK  137  A    between atoms: _344  and  _345
REMARK  138  A    between atoms: _344  and  _347
REMARK  139  A    between atoms: _347  and  _348
REMARK  140  A    between atoms: _348  and  _349
REMARK  141  A    between atoms: _354  and  _356
REMARK  142  A    between atoms: _356  and  _357
REMARK  143  A    between atoms: _356  and  _359
REMARK  144  A    between atoms: _362  and  _364
REMARK  145  A    between atoms: _364  and  _365
REMARK  146  A    between atoms: _364  and  _367
REMARK  147  A    between atoms: _367  and  _368
REMARK  148  A    between atoms: _378  and  _380
REMARK  149  A    between atoms: _380  and  _381
REMARK  150  A    between atoms: _380  and  _383
REMARK  151  A    between atoms: _383  and  _384
REMARK  152  A    between atoms: _387  and  _389
REMARK  153  A    between atoms: _389  and  _390
REMARK  154  A    between atoms: _389  and  _392
REMARK  155  A    between atoms: _395  and  _397
REMARK  156  A    between atoms: _397  and  _398
REMARK  157  A    between atoms: _397  and  _400
REMARK  158  A    between atoms: _400  and  _401
REMARK  159  A    between atoms: _404  and  _406
REMARK  160  A    between atoms: _406  and  _407
REMARK  161  A    between atoms: _406  and  _409
REMARK  162  A    between atoms: _409  and  _410
REMARK  163  A    between atoms: _413  and  _415
REMARK  164  A    between atoms: _415  and  _416
REMARK  165  A    between atoms: _418  and  _420
REMARK  166  A    between atoms: _420  and  _421
REMARK  167  A    between atoms: _424  and  _426
REMARK  168  A    between atoms: _426  and  _427
REMARK  169  A    between atoms: _426  and  _429
REMARK  170  A    between atoms: _429  and  _430
REMARK  171  A    between atoms: _432  and  _434
REMARK  172  A    between atoms: _434  and  _435
REMARK  173  A    between atoms: _434  and  _437
REMARK  174  A    between atoms: _437  and  _438
REMARK  175  A    between atoms: _443  and  _444
REMARK  176  A    between atoms: _446  and  _448
REMARK  177  A    between atoms: _448  and  _449
REMARK  178  A    between atoms: _448  and  _451
REMARK  179  A    between atoms: _451  and  _452
REMARK  180  A    between atoms: _455  and  _457
REMARK  181  A    between atoms: _457  and  _458
REMARK  182  A    between atoms: _457  and  _460
REMARK  183  A    between atoms: _460  and  _461
REMARK  184  A    between atoms: _463  and  _465
REMARK  185  A    between atoms: _465  and  _466
REMARK  186  A    between atoms: _468  and  _470
REMARK  187  A    between atoms: _470  and  _471
REMARK  188  A    between atoms: _470  and  _473
REMARK  189  A    between atoms: _473  and  _474
REMARK  190  A    between atoms: _480  and  _482
REMARK  191  A    between atoms: _482  and  _483
REMARK  192  A    between atoms: _482  and  _485
REMARK  193  A    between atoms: _485  and  _486
REMARK  194  A    between atoms: _489  and  _491
REMARK  195  A    between atoms: _491  and  _492
REMARK  196  A    between atoms: _491  and  _494
REMARK  197  A    between atoms: _494  and  _495
REMARK  198  A    between atoms: _501  and  _503
REMARK  199  A    between atoms: _503  and  _504
REMARK  200  A    between atoms: _503  and  _506
REMARK  201  A    between atoms: _506  and  _507
REMARK  202  A    between atoms: _510  and  _512
REMARK  203  A    between atoms: _512  and  _513
REMARK  204  A    between atoms: _512  and  _515
REMARK  205  A    between atoms: _515  and  _516
REMARK  206  A    between atoms: _519  and  _521
REMARK  207  A    between atoms: _521  and  _522
REMARK  208  A    between atoms: _525  and  _527
REMARK  209  A    between atoms: _527  and  _528
REMARK  210  A    between atoms: _527  and  _530
REMARK  211  A    between atoms: _530  and  _531
REMARK  212  A    between atoms: _534  and  _536
REMARK  213  A    between atoms: _536  and  _537
REMARK  214  A    between atoms: _536  and  _539
REMARK  215  A    between atoms: _539  and  _540
REMARK  216  A    between atoms: _545  and  _547
REMARK  217  A    between atoms: _547  and  _548
REMARK  218  A    between atoms: _551  and  _553
REMARK  219  A    between atoms: _553  and  _554
REMARK  220  A    between atoms: _553  and  _556
REMARK  221  A    between atoms: _556  and  _557
REMARK  222  A    between atoms: _557  and  _558
REMARK  223  A    between atoms: _560  and  _562
REMARK  224  A    between atoms: _562  and  _563
REMARK  225  A    between atoms: _562  and  _565
REMARK  226  A    between atoms: _565  and  _566
REMARK  227  A    between atoms: _569  and  _571
REMARK  228  A    between atoms: _571  and  _572
REMARK  229  A    between atoms: _571  and  _574
REMARK  230  A    between atoms: _574  and  _575
REMARK  231  A    between atoms: _579  and  _580
REMARK  232  A    between atoms: _585  and  _587
REMARK  233  A    between atoms: _587  and  _588
REMARK  234  A    between atoms: _587  and  _590
REMARK  235  A    between atoms: _590  and  _591
REMARK  236  A    between atoms: _594  and  _596
REMARK  237  A    between atoms: _596  and  _597
REMARK  238  A    between atoms: _599  and  _601
REMARK  239  A    between atoms: _601  and  _602
REMARK  240  A    between atoms: _601  and  _604
REMARK  241  A    between atoms: _604  and  _605
REMARK  242  A    between atoms: _608  and  _610
REMARK  243  A    between atoms: _610  and  _611
REMARK  244  A    between atoms: _610  and  _613
REMARK  245  A    between atoms: _613  and  _614
REMARK  246  A    between atoms: _624  and  _626
REMARK  247  A    between atoms: _626  and  _627
REMARK  248  A    between atoms: _630  and  _632
REMARK  249  A    between atoms: _632  and  _633
REMARK  250  A    between atoms: _632  and  _635
REMARK  251  A    between atoms: _635  and  _636
REMARK  252  A    between atoms: _639  and  _641
REMARK  253  A    between atoms: _641  and  _642
REMARK  254  A    between atoms: _644  and  _646
REMARK  255  A    between atoms: _646  and  _647
REMARK                            x       y       z     vdW  Elec       q    Type
REMARK                         _______ _______ _______ _____ _____    ______ ____
ROOT
ATOM      1  CB  HIS A   1       5.541  11.871   5.840  0.00  0.00    +0.072 C 
ENDROOT
BRANCH   1   2
ATOM      2  CG  HIS A   1       5.722  11.059   4.592  0.00  0.00    +0.082 A 
ATOM      3  ND1 HIS A   1       6.041   9.714   4.620  0.00  0.00    -0.227 NA
ATOM      4  CE1 HIS A   1       6.180   9.276   3.382  0.00  0.00    +0.199 A 
ATOM      5  NE2 HIS A   1       5.981  10.287   2.553  0.00  0.00    -0.221 NA
ATOM      6  CD2 HIS A   1       5.715  11.421   3.283  0.00  0.00    +0.115 A 
ENDBRANCH   1   2
BRANCH   1   7
ATOM      7  CA  HIS A   1       6.807  12.601   6.253  0.00  0.00    +0.139 C 
BRANCH   7   8
ATOM      8  N   HIS A   1       7.848  11.662   6.539  0.00  0.00    -0.239 NA
ATOM      9  H   HIS A   1       7.671  10.887   7.210  0.00  0.00    +0.142 HD
ENDBRANCH   7   8
BRANCH   7  10
ATOM     10  C   HIS A   1       6.592  13.546   7.402  0.00  0.00    +0.224 C 
ATOM     11  O   HIS A   1       7.150  13.382   8.488  0.00  0.00    -0.287 OA
ENDBRANCH   7  10
ENDBRANCH   1   7
TORSDOF 4
REMARK  Name = ../refined-set-2016/3d91/3d91_pocket.pdb
REMARK  255 active torsions:
REMARK  status: ('A' for Active; 'I' for Inactive)
REMARK    1  A    between atoms: _1  and  _3
REMARK    2  A    between atoms: _3  and  _4
REMARK    3  A    between atoms: _3  and  _6
REMARK    4  A    between atoms: _6  and  _7
REMARK    5  A    between atoms: _12  and  _13
REMARK    6  A    between atoms: _15  and  _17
REMARK    7  A    between atoms: _17  and  _18
REMARK    8  A    between atoms: _17  and  _20
REMARK    9  A    between atoms: _20  and  _21
REMARK   10  A    between atoms: _24  and  _26
REMARK   11  A    between atoms: _26  and  _27
REMARK   12  A    between atoms: _26  and  _29
REMARK   13  A    between atoms: _29  and  _30
REMARK   14  A    between atoms: _33  and  _35
REMARK   15  A    between atoms: _35  and  _36
REMARK   16  A    between atoms: _35  and  _38
REMARK   17  A    between atoms: _38  and  _39
REMARK   18  A    between atoms: _39  and  _40
REMARK   19  A    between atoms: _45  and  _47
REMARK   20  A    between atoms: _47  and  _48
REMARK   21  A    between atoms: _47  and  _50
REMARK   22  A    between atoms: _50  and  _51
REMARK   23  A    between atoms: _56  and  _57
REMARK   24  A    between atoms: _59  and  _61
REMARK   25  A    between atoms: _61  and  _62
REMARK   26  A    between atoms: _61  and  _64
REMARK   27  A    between atoms: _67  and  _69
REMARK   28  A    between atoms: _69  and  _70
REMARK   29  A    between atoms: _69  and  _72
REMARK   30  A    between atoms: _75  and  _77
REMARK   31  A    between atoms: _77  and  _78
REMARK   32  A    between atoms: _77  and  _80
REMARK   33  A    between atoms: _80  and  _81
REMARK   34  A    between atoms: _87  and  _89
REMARK   35  A    between atoms: _89  and  _90
REMARK   36  A    between atoms: _89  and  _92
REMARK   37  A    between atoms: _92  and  _93
REMARK   38  A    between atoms: _96  and  _98
REMARK   39  A    between atoms: _98  and  _99
REMARK   40  A    between atoms: _98  and  _101
REMARK   41  A    between atoms: _101  and  _102
REMARK   42  A    between atoms: _105  and  _107
REMARK   43  A    between atoms: _107  and  _108
REMARK   44  A    between atoms: _110  and  _112
REMARK   45  A    between atoms: _112  and  _113
REMARK   46  A    between atoms: _112  and  _115
REMARK   47  A    between atoms: _115  and  _116
REMARK   48  A    between atoms: _118  and  _120
REMARK   49  A    between atoms: _120  and  _121
REMARK   50  A    between atoms: _120  and  _123
REMARK   51  A    between atoms: _123  and  _124
REMARK   52  A    between atoms: _126  and  _128
REMARK   53  A    between atoms: _128  and  _129
REMARK   54  A    between atoms: _128  and  _131
REMARK   55  A    between atoms: _131  and  _132
REMARK   56  A    between atoms: _142  and  _144
REMARK   57  A    between atoms: _144  and  _145
REMARK   58  A    between atoms: _144  and  _147
REMARK   59  A    between atoms: _147  and  _148
REMARK   60  A    between atoms: _153  and  _155
REMARK   61  A    between atoms: _155  and  _156
REMARK   62  A    between atoms: _155  and  _158
REMARK   63  A    between atoms: _158  and  _159
REMARK   64  A    between atoms: _162  and  _164
REMARK   65  A    between atoms: _164  and  _165
REMARK   66  A    between atoms: _164  and  _167
REMARK   67  A    between atoms: _167  and  _168
REMARK   68  A    between atoms: _168  and  _169
REMARK   69  A    between atoms: _169  and  _170
REMARK   70  A    between atoms: _179  and  _181
REMARK   71  A    between atoms: _181  and  _182
REMARK   72  A    between atoms: _181  and  _184
REMARK   73  A    between atoms: _184  and  _185
REMARK   74  A    between atoms: _190  and  _191
REMARK   75  A    between atoms: _193  and  _195
REMARK   76  A    between atoms: _195  and  _196
REMARK   77  A    between atoms: _195  and  _198
REMARK   78  A    between atoms: _198  and  _199
REMARK   79  A    between atoms: _201  and  _203
REMARK   80  A    between atoms: _203  and  _204
REMARK   81  A    between atoms: _203  and  _206
REMARK   82  A    between atoms: _206  and  _207
REMARK   83  A    between atoms: _210  and  _212
REMARK   84  A    between atoms: _212  and  _213
REMARK   85  A    between atoms: _215  and  _217
REMARK   86  A    between atoms: _217  and  _218
REMARK   87  A    between atoms: _217  and  _220
REMARK   88  A    between atoms: _220  and  _221
REMARK   89  A    between atoms: _224  and  _226
REMARK   90  A    between atoms: _226  and  _227
REMARK   91  A    between atoms: _226  and  _229
REMARK   92  A    between atoms: _232  and  _234
REMARK   93  A    between atoms: _234  and  _235
REMARK   94  A    between atoms: _238  and  _240
REMARK   95  A    between atoms: _240  and  _241
REMARK   96  A    between atoms: _240  and  _243
REMARK   97  A    between atoms: _243  and  _244
REMARK   98  A    between atoms: _248  and  _249
REMARK   99  A    between atoms: _254  and  _256
REMARK  100  A    between atoms: _256  and  _257
REMARK  101  A    between atoms: _256  and  _259
REMARK  102  A    between atoms: _259  and  _260
REMARK  103  A    between atoms: _266  and  _268
REMARK  104  A    between atoms: _268  and  _269
REMARK  105  A    between atoms: _268  and  _271
REMARK  106  A    between atoms: _271  and  _272
REMARK  107  A    between atoms: _272  and  _273
REMARK  108  A    between atoms: _275  and  _277
REMARK  109  A    between atoms: _277  and  _278
REMARK  110  A    between atoms: _277  and  _280
REMARK  111  A    between atoms: _280  and  _281
REMARK  112  A    between atoms: _284  and  _286
REMARK  113  A    between atoms: _286  and  _287
REMARK  114  A    between atoms: _290  and  _292
REMARK  115  A    between atoms: _292  and  _293
REMARK  116  A    between atoms: _292  and  _295
REMARK  117  A    between atoms: _295  and  _296
REMARK  118  A    between atoms: _296  and  _297
REMARK  119  A    between atoms: _300  and  _302
REMARK  120  A    between atoms: _302  and  _303
REMARK  121  A    between atoms: _302  and  _305
REMARK  122  A    between atoms: _305  and  _306
REMARK  123  A    between atoms: _312  and  _314
REMARK  124  A    between atoms: _314  and  _315
REMARK  125  A    between atoms: _317  and  _319
REMARK  126  A    between atoms: _319  and  _320
REMARK  127  A    between atoms: _319  and  _322
REMARK  128  A    between atoms: _325  and  _327
REMARK  129  A    between atoms: _327  and  _328
REMARK  130  A    between atoms: _327  and  _330
REMARK  131  A    between atoms: _333  and  _335
REMARK  132  A    between atoms: _335  and  _336
REMARK  133  A    between atoms: _335  and  _338
REMARK  134  A    between atoms: _338  and  _339
REMARK  135  A    between atoms: _339  and  _340
REMARK  136  A    between atoms: _342  and  _344
REMARK  137  A    between atoms: _344  and  _345
REMARK  138  A    between atoms: _344  and  _347
REMARK  139  A    between atoms: _347  and  _348
REMARK  140  A    between atoms: _348  and  _349
REMARK  141  A    between atoms: _354  and  _356
REMARK  142  A    between atoms: _356  and  _357
REMARK  143  A    between atoms: _356  and  _359
REMARK  144  A    between atoms: _362  and  _364
REMARK  145  A    between atoms: _364  and  _365
REMARK  146  A    between atoms: _364  and  _367
REMARK  147  A    between atoms: _367  and  _368
REMARK  148  A    between atoms: _378  and  _380
REMARK  149  A    between atoms: _380  and  _381
REMARK  150  A    between atoms: _380  and  _383
REMARK  151  A    between atoms: _383  and  _384
REMARK  152  A    between atoms: _387  and  _389
REMARK  153  A    between atoms: _389  and  _390
REMARK  154  A    between atoms: _389  and  _392
REMARK  155  A    between atoms: _395  and  _397
REMARK  156  A    between atoms: _397  and  _398
REMARK  157  A    between atoms: _397  and  _400
REMARK  158  A    between atoms: _400  and  _401
REMARK  159  A    between atoms: _404  and  _406
REMARK  160  A    between atoms: _406  and  _407
REMARK  161  A    between atoms: _406  and  _409
REMARK  162  A    between atoms: _409  and  _410
REMARK  163  A    between atoms: _413  and  _415
REMARK  164  A    between atoms: _415  and  _416
REMARK  165  A    between atoms: _418  and  _420
REMARK  166  A    between atoms: _420  and  _421
REMARK  167  A    between atoms: _424  and  _426
REMARK  168  A    between atoms: _426  and  _427
REMARK  169  A    between atoms: _426  and  _429
REMARK  170  A    between atoms: _429  and  _430
REMARK  171  A    between atoms: _432  and  _434
REMARK  172  A    between atoms: _434  and  _435
REMARK  173  A    between atoms: _434  and  _437
REMARK  174  A    between atoms: _437  and  _438
REMARK  175  A    between atoms: _443  and  _444
REMARK  176  A    between atoms: _446  and  _448
REMARK  177  A    between atoms: _448  and  _449
REMARK  178  A    between atoms: _448  and  _451
REMARK  179  A    between atoms: _451  and  _452
REMARK  180  A    between atoms: _455  and  _457
REMARK  181  A    between atoms: _457  and  _458
REMARK  182  A    between atoms: _457  and  _460
REMARK  183  A    between atoms: _460  and  _461
REMARK  184  A    between atoms: _463  and  _465
REMARK  185  A    between atoms: _465  and  _466
REMARK  186  A    between atoms: _468  and  _470
REMARK  187  A    between atoms: _470  and  _471
REMARK  188  A    between atoms: _470  and  _473
REMARK  189  A    between atoms: _473  and  _474
REMARK  190  A    between atoms: _480  and  _482
REMARK  191  A    between atoms: _482  and  _483
REMARK  192  A    between atoms: _482  and  _485
REMARK  193  A    between atoms: _485  and  _486
REMARK  194  A    between atoms: _489  and  _491
REMARK  195  A    between atoms: _491  and  _492
REMARK  196  A    between atoms: _491  and  _494
REMARK  197  A    between atoms: _494  and  _495
REMARK  198  A    between atoms: _501  and  _503
REMARK  199  A    between atoms: _503  and  _504
REMARK  200  A    between atoms: _503  and  _506
REMARK  201  A    between atoms: _506  and  _507
REMARK  202  A    between atoms: _510  and  _512
REMARK  203  A    between atoms: _512  and  _513
REMARK  204  A    between atoms: _512  and  _515
REMARK  205  A    between atoms: _515  and  _516
REMARK  206  A    between atoms: _519  and  _521
REMARK  207  A    between atoms: _521  and  _522
REMARK  208  A    between atoms: _525  and  _527
REMARK  209  A    between atoms: _527  and  _528
REMARK  210  A    between atoms: _527  and  _530
REMARK  211  A    between atoms: _530  and  _531
REMARK  212  A    between atoms: _534  and  _536
REMARK  213  A    between atoms: _536  and  _537
REMARK  214  A    between atoms: _536  and  _539
REMARK  215  A    between atoms: _539  and  _540
REMARK  216  A    between atoms: _545  and  _547
REMARK  217  A    between atoms: _547  and  _548
REMARK  218  A    between atoms: _551  and  _553
REMARK  219  A    between atoms: _553  and  _554
REMARK  220  A    between atoms: _553  and  _556
REMARK  221  A    between atoms: _556  and  _557
REMARK  222  A    between atoms: _557  and  _558
REMARK  223  A    between atoms: _560  and  _562
REMARK  224  A    between atoms: _562  and  _563
REMARK  225  A    between atoms: _562  and  _565
REMARK  226  A    between atoms: _565  and  _566
REMARK  227  A    between atoms: _569  and  _571
REMARK  228  A    between atoms: _571  and  _572
REMARK  229  A    between atoms: _571  and  _574
REMARK  230  A    between atoms: _574  and  _575
REMARK  231  A    between atoms: _579  and  _580
REMARK  232  A    between atoms: _585  and  _587
REMARK  233  A    between atoms: _587  and  _588
REMARK  234  A    between atoms: _587  and  _590
REMARK  235  A    between atoms: _590  and  _591
REMARK  236  A    between atoms: _594  and  _596
REMARK  237  A    between atoms: _596  and  _597
REMARK  238  A    between atoms: _599  and  _601
REMARK  239  A    between atoms: _601  and  _602
REMARK  240  A    between atoms: _601  and  _604
REMARK  241  A    between atoms: _604  and  _605
REMARK  242  A    between atoms: _608  and  _610
REMARK  243  A    between atoms: _610  and  _611
REMARK  244  A    between atoms: _610  and  _613
REMARK  245  A    between atoms: _613  and  _614
REMARK  246  A    between atoms: _624  and  _626
REMARK  247  A    between atoms: _626  and  _627
REMARK  248  A    between atoms: _630  and  _632
REMARK  249  A    between atoms: _632  and  _633
REMARK  250  A    between atoms: _632  and  _635
REMARK  251  A    between atoms: _635  and  _636
REMARK  252  A    between atoms: _639  and  _641
REMARK  253  A    between atoms: _641  and  _642
REMARK  254  A    between atoms: _644  and  _646
REMARK  255  A    between atoms: _646  and  _647
REMARK                            x       y       z     vdW  Elec       q    Type
REMARK                         _______ _______ _______ _____ _____    ______ ____
ROOT
ATOM      1  C   TYR A   3      -7.029   1.099  -1.483  0.00  0.00    +0.241 C 
ATOM      2  O   TYR A   3      -6.551   0.114  -0.947  0.00  0.00    -0.273 OA
ATOM      3  N   SER A   4      -7.248   1.196  -2.784  0.00  0.00    -0.295 N 
ATOM      4  H   SER A   4      -7.693   2.056  -3.162  0.00  0.00    +0.150 HD
ENDROOT
BRANCH   3   5
ATOM      5  CA  SER A   4      -6.881   0.129  -3.693  0.00  0.00    +0.178 C 
BRANCH   5   6
ATOM      6  C   SER A   4      -5.398  -0.220  -3.535  0.00  0.00    +0.243 C 
ATOM      7  N   THR A   5      -4.567   0.814  -3.343  0.00  0.00    -0.295 N 
ATOM      8  H   THR A   5      -4.925   1.780  -3.488  0.00  0.00    +0.150 HD
ATOM      9  O   SER A   4      -5.025  -1.407  -3.552  0.00  0.00    -0.273 OA
BRANCH   7  10
ATOM     10  CA  THR A   5      -3.179   0.632  -2.938  0.00  0.00    +0.176 C 
BRANCH  10  11
ATOM     11  C   THR A   5      -2.929   1.356  -1.617  0.00  0.00    +0.243 C 
ATOM     12  N   GLY A   6      -3.098   0.623  -0.514  0.00  0.00    -0.295 N 
ATOM     13  H   GLY A   6      -3.609  -0.280  -0.590  0.00  0.00    +0.150 HD
ATOM     14  O   THR A   5      -2.627   2.577  -1.611  0.00  0.00    -0.273 OA
BRANCH  12  15
ATOM     15  CA  GLY A   6      -2.594   1.036   0.803  0.00  0.00    +0.176 C 
BRANCH  15  16
ATOM     16  C   GLY A   6      -3.686   1.437   1.782  0.00  0.00    +0.243 C 
ATOM     17  N   THR A   7      -3.430   1.247   3.069  0.00  0.00    -0.295 N 
ATOM     18  H   THR A   7      -2.509   0.867   3.367  0.00  0.00    +0.150 HD
ATOM     19  O   GLY A   6      -4.749   1.930   1.386  0.00  0.00    -0.273 OA
BRANCH  17  20
ATOM     20  CA  THR A   7      -4.427   1.567   4.048  0.00  0.00    +0.176 C 
BRANCH  20  21
ATOM     21  C   THR A   7      -3.890   2.308   5.270  0.00  0.00    +0.243 C 
ATOM     22  N   VAL A   8      -4.764   2.822   6.103  0.00  0.00    -0.298 N 
ATOM     23  H   VAL A   8      -5.786   2.639   6.047  0.00  0.00    +0.150 HD
ATOM     24  O   THR A   7      -2.684   2.323   5.548  0.00  0.00    -0.273 OA
BRANCH  22  25
ATOM     25  CA  VAL A   8      -4.182   3.638   7.070  0.00  0.00    +0.137 C 
BRANCH  25  26
ATOM     26  CB  VAL A   8      -4.029   5.092   6.228  0.00  0.00    +0.026 C 
ATOM     27  CG2 VAL A   8      -4.899   5.958   6.703  0.00  0.00    +0.002 C 
ATOM     28  CG1 VAL A   8      -2.592   5.454   6.093  0.00  0.00    +0.002 C 
ENDBRANCH  25  26
BRANCH  25  29
ATOM     29  C   VAL A   8      -5.109   3.709   8.249  0.00  0.00    +0.227 C 
ATOM     30  O   VAL A   8      -6.302   3.737   8.045  0.00  0.00    -0.286 OA
ENDBRANCH  25  29
ENDBRANCH  22  25
ENDBRANCH  20  21
BRANCH  20  31
ATOM     31  CB  THR A   7      -5.204   0.251   4.490  0.00  0.00    +0.137 C 
ATOM     32  CG2 THR A   7      -4.586  -0.958   3.874  0.00  0.00    +0.034 C 
BRANCH  31  33
ATOM     33  OG1 THR A   7      -5.143   0.134   5.905  0.00  0.00    -0.382 OA
ATOM     34  HG1 THR A   7      -5.625  -0.683   6.188  0.00  0.00    +0.210 HD
ENDBRANCH  31  33
ENDBRANCH  20  31
ENDBRANCH  17  20
ENDBRANCH  15  16
ENDBRANCH  12  15
ENDBRANCH  10  11
BRANCH  10  35
ATOM     35  CB  THR A   5      -2.170   1.217  -3.957  0.00  0.00    +0.137 C 
ATOM     36  CG2 THR A   5      -2.321   0.601  -5.317  0.00  0.00    +0.034 C 
BRANCH  35  37
ATOM     37  OG1 THR A   5      -2.372   2.612  -4.058  0.00  0.00    -0.382 OA
ATOM     38  HG1 THR A   5      -2.231   3.030  -3.172  0.00  0.00    +0.210 HD
ENDBRANCH  35  37
ENDBRANCH  10  35
ENDBRANCH   7  10
ENDBRANCH   5   6
BRANCH   5  39
ATOM     39  CB  SER A   4      -7.216   0.582  -5.085  0.00  0.00    +0.166 C 
BRANCH  39  40
ATOM     40  OG  SER A   4      -8.455   1.244  -4.961  0.00  0.00    -0.380 OA
ATOM     41  H   SER A   4      -8.359   2.008  -4.339  0.00  0.00    +0.211 HD
ENDBRANCH  39  40
ENDBRANCH   5  39
ENDBRANCH   3   5
BRANCH   1  42
ATOM     42  CA  TYR A   3      -7.423   2.272  -0.652  0.00  0.00    +0.153 C 
BRANCH  42  45
ATOM     43  C   ARG A   2      -8.644   1.787   1.335  0.00  0.00    +0.241 C 
ATOM     44  O   ARG A   2      -9.702   2.042   0.763  0.00  0.00    -0.273 OA
ATOM     45  N   TYR A   3      -7.479   1.843   0.723  0.00  0.00    -0.297 N 
ATOM     46  H   TYR A   3      -6.608   1.580   1.227  0.00  0.00    +0.150 HD
BRANCH  43  47
ATOM     47  CA  ARG A   2      -8.618   1.343   2.776  0.00  0.00    +0.149 C 
BRANCH  47  50
ATOM     48  C   LEU A   1      -8.360   3.029   4.477  0.00  0.00    +0.238 C 
ATOM     49  O   LEU A   1      -7.126   2.965   4.459  0.00  0.00    -0.274 OA
ATOM     50  N   ARG A   2      -9.151   2.371   3.636  0.00  0.00    -0.297 N 
ATOM     51  H   ARG A   2     -10.165   2.600   3.598  0.00  0.00    +0.150 HD
BRANCH  48  52
ATOM     52  CA  LEU A   1      -9.050   3.917   5.462  0.00  0.00    +0.145 C 
BRANCH  52  53
ATOM     53  N   LEU A   1      -8.725   3.468   6.798  0.00  0.00    -0.238 NA
ATOM     54  H   LEU A   1      -7.736   3.436   7.118  0.00  0.00    +0.142 HD
ENDBRANCH  52  53
BRANCH  52  55
ATOM     55  CB  LEU A   1      -8.619   5.371   5.247  0.00  0.00    +0.026 C 
BRANCH  55  56
ATOM     56  CG  LEU A   1      -9.302   6.391   6.129  0.00  0.00    +0.002 C 
ATOM     57  CD2 LEU A   1     -10.782   6.325   5.894  0.00  0.00    +0.000 C 
ATOM     58  CD1 LEU A   1      -8.751   7.791   5.764  0.00  0.00    +0.000 C 
ENDBRANCH  55  56
ENDBRANCH  52  55
ENDBRANCH  48  52
ENDBRANCH  47  50
BRANCH  47  59
ATOM     59  CB  ARG A   2      -9.405   0.047   2.953  0.00  0.00    +0.033 C 
BRANCH  59  60
ATOM     60  CG  ARG A   2      -9.410  -0.410   4.366  0.00  0.00    +0.045 C 
BRANCH  60  61
ATOM     61  CD  ARG A   2     -10.415  -1.525   4.628  0.00  0.00    +0.174 C 
BRANCH  61  62
ATOM     62  NE  ARG A   2     -10.150  -2.117   5.933  0.00  0.00    -0.265 N 
ATOM     63  HE  ARG A   2     -10.691  -1.751   6.742  0.00  0.00    +0.259 HD
ATOM     64  CZ  ARG A   2      -9.264  -3.096   6.176  0.00  0.00    +0.342 C 
ATOM     65  NH2 ARG A   2      -9.114  -3.530   7.420  0.00  0.00    -0.292 N 
ATOM     66 HH21 ARG A   2      -9.678  -3.113   8.188  0.00  0.00    +0.255 HD
ATOM     67 HH22 ARG A   2      -8.433  -4.288   7.628  0.00  0.00    +0.255 HD
ATOM     68  NH1 ARG A   2      -8.525  -3.650   5.200  0.00  0.00    -0.292 N 
ATOM     69 HH11 ARG A   2      -7.848  -4.407   5.426  0.00  0.00    +0.255 HD
ATOM     70 HH12 ARG A   2      -8.630  -3.322   4.219  0.00  0.00    +0.255 HD
ENDBRANCH  61  62
ENDBRANCH  60  61
ENDBRANCH  59  60
ENDBRANCH  47  59
ENDBRANCH  43  47
ENDBRANCH  42  45
BRANCH  42  71
ATOM     71  CB  TYR A   3      -6.407   3.368  -0.809  0.00  0.00    +0.055 C 
BRANCH  71  72
ATOM     72  CG  TYR A   3      -6.713   4.576   0.015  0.00  0.00    -0.020 A 
ATOM     73  CD2 TYR A   3      -6.133   4.745   1.275  0.00  0.00    -0.001 A 
ATOM     74  CE2 TYR A   3      -6.376   5.920   2.031  0.00  0.00    +0.036 A 
ATOM     75  CZ  TYR A   3      -7.213   6.907   1.524  0.00  0.00    +0.134 A 
ATOM     76  CE1 TYR A   3      -7.804   6.765   0.271  0.00  0.00    +0.036 A 
ATOM     77  CD1 TYR A   3      -7.549   5.599  -0.485  0.00  0.00    -0.001 A 
BRANCH  75  78
ATOM     78  OH  TYR A   3      -7.449   8.042   2.280  0.00  0.00    -0.506 OA
ATOM     79  HH  TYR A   3      -8.060   8.645   1.786  0.00  0.00    +0.292 HD
ENDBRANCH  75  78
ENDBRANCH  71  72
ENDBRANCH  42  71
ENDBRANCH   1  42
TORSDOF 32
REMARK  Name = ../refined-set-2016/3d91/3d91_pocket.pdb
REMARK  255 active torsions:
REMARK  status: ('A' for Active; 'I' for Inactive)
REMARK    1  A    between atoms: _1  and  _3
REMARK    2  A    between atoms: _3  and  _4
REMARK    3  A    between atoms: _3  and  _6
REMARK    4  A    between atoms: _6  and  _7
REMARK    5  A    between atoms: _12  and  _13
REMARK    6  A    between atoms: _15  and  _17
REMARK    7  A    between atoms: _17  and  _18
REMARK    8  A    between atoms: _17  and  _20
REMARK    9  A    between atoms: _20  and  _21
REMARK   10  A    between atoms: _24  and  _26
REMARK   11  A    between atoms: _26  and  _27
REMARK   12  A    between atoms: _26  and  _29
REMARK   13  A    between atoms: _29  and  _30
REMARK   14  A    between atoms: _33  and  _35
REMARK   15  A    between atoms: _35  and  _36
REMARK   16  A    between atoms: _35  and  _38
REMARK   17  A    between atoms: _38  and  _39
REMARK   18  A    between atoms: _39  and  _40
REMARK   19  A    between atoms: _45  and  _47
REMARK   20  A    between atoms: _47  and  _48
REMARK   21  A    between atoms: _47  and  _50
REMARK   22  A    between atoms: _50  and  _51
REMARK   23  A    between atoms: _56  and  _57
REMARK   24  A    between atoms: _59  and  _61
REMARK   25  A    between atoms: _61  and  _62
REMARK   26  A    between atoms: _61  and  _64
REMARK   27  A    between atoms: _67  and  _69
REMARK   28  A    between atoms: _69  and  _70
REMARK   29  A    between atoms: _69  and  _72
REMARK   30  A    between atoms: _75  and  _77
REMARK   31  A    between atoms: _77  and  _78
REMARK   32  A    between atoms: _77  and  _80
REMARK   33  A    between atoms: _80  and  _81
REMARK   34  A    between atoms: _87  and  _89
REMARK   35  A    between atoms: _89  and  _90
REMARK   36  A    between atoms: _89  and  _92
REMARK   37  A    between atoms: _92  and  _93
REMARK   38  A    between atoms: _96  and  _98
REMARK   39  A    between atoms: _98  and  _99
REMARK   40  A    between atoms: _98  and  _101
REMARK   41  A    between atoms: _101  and  _102
REMARK   42  A    between atoms: _105  and  _107
REMARK   43  A    between atoms: _107  and  _108
REMARK   44  A    between atoms: _110  and  _112
REMARK   45  A    between atoms: _112  and  _113
REMARK   46  A    between atoms: _112  and  _115
REMARK   47  A    between atoms: _115  and  _116
REMARK   48  A    between atoms: _118  and  _120
REMARK   49  A    between atoms: _120  and  _121
REMARK   50  A    between atoms: _120  and  _123
REMARK   51  A    between atoms: _123  and  _124
REMARK   52  A    between atoms: _126  and  _128
REMARK   53  A    between atoms: _128  and  _129
REMARK   54  A    between atoms: _128  and  _131
REMARK   55  A    between atoms: _131  and  _132
REMARK   56  A    between atoms: _142  and  _144
REMARK   57  A    between atoms: _144  and  _145
REMARK   58  A    between atoms: _144  and  _147
REMARK   59  A    between atoms: _147  and  _148
REMARK   60  A    between atoms: _153  and  _155
REMARK   61  A    between atoms: _155  and  _156
REMARK   62  A    between atoms: _155  and  _158
REMARK   63  A    between atoms: _158  and  _159
REMARK   64  A    between atoms: _162  and  _164
REMARK   65  A    between atoms: _164  and  _165
REMARK   66  A    between atoms: _164  and  _167
REMARK   67  A    between atoms: _167  and  _168
REMARK   68  A    between atoms: _168  and  _169
REMARK   69  A    between atoms: _169  and  _170
REMARK   70  A    between atoms: _179  and  _181
REMARK   71  A    between atoms: _181  and  _182
REMARK   72  A    between atoms: _181  and  _184
REMARK   73  A    between atoms: _184  and  _185
REMARK   74  A    between atoms: _190  and  _191
REMARK   75  A    between atoms: _193  and  _195
REMARK   76  A    between atoms: _195  and  _196
REMARK   77  A    between atoms: _195  and  _198
REMARK   78  A    between atoms: _198  and  _199
REMARK   79  A    between atoms: _201  and  _203
REMARK   80  A    between atoms: _203  and  _204
REMARK   81  A    between atoms: _203  and  _206
REMARK   82  A    between atoms: _206  and  _207
REMARK   83  A    between atoms: _210  and  _212
REMARK   84  A    between atoms: _212  and  _213
REMARK   85  A    between atoms: _215  and  _217
REMARK   86  A    between atoms: _217  and  _218
REMARK   87  A    between atoms: _217  and  _220
REMARK   88  A    between atoms: _220  and  _221
REMARK   89  A    between atoms: _224  and  _226
REMARK   90  A    between atoms: _226  and  _227
REMARK   91  A    between atoms: _226  and  _229
REMARK   92  A    between atoms: _232  and  _234
REMARK   93  A    between atoms: _234  and  _235
REMARK   94  A    between atoms: _238  and  _240
REMARK   95  A    between atoms: _240  and  _241
REMARK   96  A    between atoms: _240  and  _243
REMARK   97  A    between atoms: _243  and  _244
REMARK   98  A    between atoms: _248  and  _249
REMARK   99  A    between atoms: _254  and  _256
REMARK  100  A    between atoms: _256  and  _257
REMARK  101  A    between atoms: _256  and  _259
REMARK  102  A    between atoms: _259  and  _260
REMARK  103  A    between atoms: _266  and  _268
REMARK  104  A    between atoms: _268  and  _269
REMARK  105  A    between atoms: _268  and  _271
REMARK  106  A    between atoms: _271  and  _272
REMARK  107  A    between atoms: _272  and  _273
REMARK  108  A    between atoms: _275  and  _277
REMARK  109  A    between atoms: _277  and  _278
REMARK  110  A    between atoms: _277  and  _280
REMARK  111  A    between atoms: _280  and  _281
REMARK  112  A    between atoms: _284  and  _286
REMARK  113  A    between atoms: _286  and  _287
REMARK  114  A    between atoms: _290  and  _292
REMARK  115  A    between atoms: _292  and  _293
REMARK  116  A    between atoms: _292  and  _295
REMARK  117  A    between atoms: _295  and  _296
REMARK  118  A    between atoms: _296  and  _297
REMARK  119  A    between atoms: _300  and  _302
REMARK  120  A    between atoms: _302  and  _303
REMARK  121  A    between atoms: _302  and  _305
REMARK  122  A    between atoms: _305  and  _306
REMARK  123  A    between atoms: _312  and  _314
REMARK  124  A    between atoms: _314  and  _315
REMARK  125  A    between atoms: _317  and  _319
REMARK  126  A    between atoms: _319  and  _320
REMARK  127  A    between atoms: _319  and  _322
REMARK  128  A    between atoms: _325  and  _327
REMARK  129  A    between atoms: _327  and  _328
REMARK  130  A    between atoms: _327  and  _330
REMARK  131  A    between atoms: _333  and  _335
REMARK  132  A    between atoms: _335  and  _336
REMARK  133  A    between atoms: _335  and  _338
REMARK  134  A    between atoms: _338  and  _339
REMARK  135  A    between atoms: _339  and  _340
REMARK  136  A    between atoms: _342  and  _344
REMARK  137  A    between atoms: _344  and  _345
REMARK  138  A    between atoms: _344  and  _347
REMARK  139  A    between atoms: _347  and  _348
REMARK  140  A    between atoms: _348  and  _349
REMARK  141  A    between atoms: _354  and  _356
REMARK  142  A    between atoms: _356  and  _357
REMARK  143  A    between atoms: _356  and  _359
REMARK  144  A    between atoms: _362  and  _364
REMARK  145  A    between atoms: _364  and  _365
REMARK  146  A    between atoms: _364  and  _367
REMARK  147  A    between atoms: _367  and  _368
REMARK  148  A    between atoms: _378  and  _380
REMARK  149  A    between atoms: _380  and  _381
REMARK  150  A    between atoms: _380  and  _383
REMARK  151  A    between atoms: _383  and  _384
REMARK  152  A    between atoms: _387  and  _389
REMARK  153  A    between atoms: _389  and  _390
REMARK  154  A    between atoms: _389  and  _392
REMARK  155  A    between atoms: _395  and  _397
REMARK  156  A    between atoms: _397  and  _398
REMARK  157  A    between atoms: _397  and  _400
REMARK  158  A    between atoms: _400  and  _401
REMARK  159  A    between atoms: _404  and  _406
REMARK  160  A    between atoms: _406  and  _407
REMARK  161  A    between atoms: _406  and  _409
REMARK  162  A    between atoms: _409  and  _410
REMARK  163  A    between atoms: _413  and  _415
REMARK  164  A    between atoms: _415  and  _416
REMARK  165  A    between atoms: _418  and  _420
REMARK  166  A    between atoms: _420  and  _421
REMARK  167  A    between atoms: _424  and  _426
REMARK  168  A    between atoms: _426  and  _427
REMARK  169  A    between atoms: _426  and  _429
REMARK  170  A    between atoms: _429  and  _430
REMARK  171  A    between atoms: _432  and  _434
REMARK  172  A    between atoms: _434  and  _435
REMARK  173  A    between atoms: _434  and  _437
REMARK  174  A    between atoms: _437  and  _438
REMARK  175  A    between atoms: _443  and  _444
REMARK  176  A    between atoms: _446  and  _448
REMARK  177  A    between atoms: _448  and  _449
REMARK  178  A    between atoms: _448  and  _451
REMARK  179  A    between atoms: _451  and  _452
REMARK  180  A    between atoms: _455  and  _457
REMARK  181  A    between atoms: _457  and  _458
REMARK  182  A    between atoms: _457  and  _460
REMARK  183  A    between atoms: _460  and  _461
REMARK  184  A    between atoms: _463  and  _465
REMARK  185  A    between atoms: _465  and  _466
REMARK  186  A    between atoms: _468  and  _470
REMARK  187  A    between atoms: _470  and  _471
REMARK  188  A    between atoms: _470  and  _473
REMARK  189  A    between atoms: _473  and  _474
REMARK  190  A    between atoms: _480  and  _482
REMARK  191  A    between atoms: _482  and  _483
REMARK  192  A    between atoms: _482  and  _485
REMARK  193  A    between atoms: _485  and  _486
REMARK  194  A    between atoms: _489  and  _491
REMARK  195  A    between atoms: _491  and  _492
REMARK  196  A    between atoms: _491  and  _494
REMARK  197  A    between atoms: _494  and  _495
REMARK  198  A    between atoms: _501  and  _503
REMARK  199  A    between atoms: _503  and  _504
REMARK  200  A    between atoms: _503  and  _506
REMARK  201  A    between atoms: _506  and  _507
REMARK  202  A    between atoms: _510  and  _512
REMARK  203  A    between atoms: _512  and  _513
REMARK  204  A    between atoms: _512  and  _515
REMARK  205  A    between atoms: _515  and  _516
REMARK  206  A    between atoms: _519  and  _521
REMARK  207  A    between atoms: _521  and  _522
REMARK  208  A    between atoms: _525  and  _527
REMARK  209  A    between atoms: _527  and  _528
REMARK  210  A    between atoms: _527  and  _530
REMARK  211  A    between atoms: _530  and  _531
REMARK  212  A    between atoms: _534  and  _536
REMARK  213  A    between atoms: _536  and  _537
REMARK  214  A    between atoms: _536  and  _539
REMARK  215  A    between atoms: _539  and  _540
REMARK  216  A    between atoms: _545  and  _547
REMARK  217  A    between atoms: _547  and  _548
REMARK  218  A    between atoms: _551  and  _553
REMARK  219  A    between atoms: _553  and  _554
REMARK  220  A    between atoms: _553  and  _556
REMARK  221  A    between atoms: _556  and  _557
REMARK  222  A    between atoms: _557  and  _558
REMARK  223  A    between atoms: _560  and  _562
REMARK  224  A    between atoms: _562  and  _563
REMARK  225  A    between atoms: _562  and  _565
REMARK  226  A    between atoms: _565  and  _566
REMARK  227  A    between atoms: _569  and  _571
REMARK  228  A    between atoms: _571  and  _572
REMARK  229  A    between atoms: _571  and  _574
REMARK  230  A    between atoms: _574  and  _575
REMARK  231  A    between atoms: _579  and  _580
REMARK  232  A    between atoms: _585  and  _587
REMARK  233  A    between atoms: _587  and  _588
REMARK  234  A    between atoms: _587  and  _590
REMARK  235  A    between atoms: _590  and  _591
REMARK  236  A    between atoms: _594  and  _596
REMARK  237  A    between atoms: _596  and  _597
REMARK  238  A    between atoms: _599  and  _601
REMARK  239  A    between atoms: _601  and  _602
REMARK  240  A    between atoms: _601  and  _604
REMARK  241  A    between atoms: _604  and  _605
REMARK  242  A    between atoms: _608  and  _610
REMARK  243  A    between atoms: _610  and  _611
REMARK  244  A    between atoms: _610  and  _613
REMARK  245  A    between atoms: _613  and  _614
REMARK  246  A    between atoms: _624  and  _626
REMARK  247  A    between atoms: _626  and  _627
REMARK  248  A    between atoms: _630  and  _632
REMARK  249  A    between atoms: _632  and  _633
REMARK  250  A    between atoms: _632  and  _635
REMARK  251  A    between atoms: _635  and  _636
REMARK  252  A    between atoms: _639  and  _641
REMARK  253  A    between atoms: _641  and  _642
REMARK  254  A    between atoms: _644  and  _646
REMARK  255  A    between atoms: _646  and  _647
REMARK                            x       y       z     vdW  Elec       q    Type
REMARK                         _______ _______ _______ _____ _____    ______ ____
ROOT
ATOM      1  CA  MET A   5       7.572   5.170   1.931  0.00  0.00    +0.149 C 
ENDROOT
BRANCH   1   3
ATOM      2  C   PHE A   4       5.225   5.664   1.684  0.00  0.00    +0.241 C 
ATOM      3  N   MET A   5       6.179   4.760   1.820  0.00  0.00    -0.297 N 
ATOM      4  H   MET A   5       5.934   3.750   1.848  0.00  0.00    +0.150 HD
ATOM      5  O   PHE A   4       5.474   6.872   1.622  0.00  0.00    -0.273 OA
BRANCH   2   6
ATOM      6  CA  PHE A   4       3.795   5.156   1.566  0.00  0.00    +0.153 C 
BRANCH   6   8
ATOM      7  C   PRO A   3       3.618   3.371  -0.126  0.00  0.00    +0.241 C 
ATOM      8  N   PHE A   4       3.577   3.730   1.151  0.00  0.00    -0.297 N 
ATOM      9  H   PHE A   4       3.390   3.010   1.878  0.00  0.00    +0.150 HD
ATOM     10  O   PRO A   3       4.129   4.063  -0.982  0.00  0.00    -0.273 OA
BRANCH   7  17
ATOM     11  C   LEU A   2       2.862   0.307   1.246  0.00  0.00    +0.244 C 
ATOM     12  O   LEU A   2       2.172  -0.449   1.918  0.00  0.00    -0.273 OA
ATOM     13  N   PRO A   3       2.341   1.294   0.488  0.00  0.00    -0.272 N 
ATOM     14  CD  PRO A   3       0.929   1.705   0.553  0.00  0.00    +0.094 C 
ATOM     15  CG  PRO A   3       0.672   2.322  -0.804  0.00  0.00    +0.024 C 
ATOM     16  CB  PRO A   3       1.962   2.223  -1.599  0.00  0.00    +0.031 C 
ATOM     17  CA  PRO A   3       3.053   2.027  -0.537  0.00  0.00    +0.152 C 
BRANCH  11  18
ATOM     18  CA  LEU A   2       4.364   0.116   1.191  0.00  0.00    +0.149 C 
BRANCH  18  20
ATOM     19  C   ALA A   1       5.521   1.388   2.847  0.00  0.00    +0.238 C 
ATOM     20  N   LEU A   2       4.962   0.241   2.499  0.00  0.00    -0.297 N 
ATOM     21  H   LEU A   2       4.953  -0.562   3.160  0.00  0.00    +0.150 HD
ATOM     22  O   ALA A   1       5.700   2.308   2.055  0.00  0.00    -0.274 OA
BRANCH  19  23
ATOM     23  CA  ALA A   1       5.945   1.495   4.284  0.00  0.00    +0.145 C 
ATOM     24  CB  ALA A   1       7.199   0.642   4.538  0.00  0.00    +0.028 C 
BRANCH  23  25
ATOM     25  N   ALA A   1       4.853   1.062   5.154  0.00  0.00    -0.238 NA
ATOM     26  H   ALA A   1       5.035   0.299   5.838  0.00  0.00    +0.142 HD
ENDBRANCH  23  25
ENDBRANCH  19  23
ENDBRANCH  18  20
BRANCH  18  27
ATOM     27  CB  LEU A   2       4.808  -1.165   0.485  0.00  0.00    +0.029 C 
BRANCH  27  28
ATOM     28  CG  LEU A   2       6.271  -0.902   0.047  0.00  0.00    +0.002 C 
ATOM     29  CD2 LEU A   2       6.975  -2.213  -0.189  0.00  0.00    +0.000 C 
ATOM     30  CD1 LEU A   2       6.429   0.088  -1.170  0.00  0.00    +0.000 C 
ENDBRANCH  27  28
ENDBRANCH  18  27
ENDBRANCH  11  18
ENDBRANCH   7  17
ENDBRANCH   6   8
BRANCH   6  31
ATOM     31  CB  PHE A   4       2.973   5.503   2.807  0.00  0.00    +0.055 C 
BRANCH  31  32
ATOM     32  CG  PHE A   4       1.504   5.491   2.537  0.00  0.00    -0.020 A 
ATOM     33  CD2 PHE A   4       0.754   4.343   2.740  0.00  0.00    -0.004 A 
ATOM     34  CE2 PHE A   4      -0.582   4.327   2.409  0.00  0.00    -0.000 A 
ATOM     35  CZ  PHE A   4      -1.192   5.513   1.874  0.00  0.00    -0.000 A 
ATOM     36  CE1 PHE A   4      -0.444   6.599   1.681  0.00  0.00    -0.000 A 
ATOM     37  CD1 PHE A   4       0.887   6.602   1.997  0.00  0.00    -0.004 A 
ENDBRANCH  31  32
ENDBRANCH   6  31
ENDBRANCH   2   6
ENDBRANCH   1   3
BRANCH   1  38
ATOM     38  C   MET A   5       8.016   5.816   0.616  0.00  0.00    +0.241 C 
ATOM     39  O   MET A   5       9.047   6.459   0.561  0.00  0.00    -0.273 OA
ATOM     40  N   LEU A   6       7.221   5.639  -0.434  0.00  0.00    -0.297 N 
ATOM     41  H   LEU A   6       6.336   5.109  -0.303  0.00  0.00    +0.150 HD
BRANCH  40  42
ATOM     42  CA  LEU A   6       7.537   6.160  -1.775  0.00  0.00    +0.149 C 
BRANCH  42  43
ATOM     43  C   LEU A   6       6.794   7.465  -2.067  0.00  0.00    +0.241 C 
ATOM     44  N   ALA A   7       5.901   7.845  -1.160  0.00  0.00    -0.297 N 
ATOM     45  H   ALA A   7       5.838   7.324  -0.262  0.00  0.00    +0.150 HD
ATOM     46  O   LEU A   6       7.038   8.112  -3.090  0.00  0.00    -0.273 OA
BRANCH  44  47
ATOM     47  CA  ALA A   7       5.015   8.963  -1.389  0.00  0.00    +0.149 C 
ATOM     48  CB  ALA A   7       3.870   8.903  -0.421  0.00  0.00    +0.031 C 
BRANCH  47  49
ATOM     49  C   ALA A   7       5.832  10.226  -1.168  0.00  0.00    +0.241 C 
ATOM     50  O   ALA A   7       6.421  10.381  -0.114  0.00  0.00    -0.273 OA
ATOM     51  N   GLU A   8       5.914  11.092  -2.165  0.00  0.00    -0.297 N 
ATOM     52  H   GLU A   8       5.561  10.823  -3.106  0.00  0.00    +0.150 HD
BRANCH  51  53
ATOM     53  CA  GLU A   8       6.504  12.448  -1.964  0.00  0.00    +0.149 C 
BRANCH  53  54
ATOM     54  C   GLU A   8       5.594  13.338  -1.129  0.00  0.00    +0.241 C 
ATOM     55  O   GLU A   8       6.052  14.211  -0.471  0.00  0.00    -0.273 OA
ATOM     56  N   PHE A   9       4.294  13.075  -1.174  0.00  0.00    -0.298 N 
ATOM     57  H   PHE A   9       3.986  12.339  -1.841  0.00  0.00    +0.150 HD
BRANCH  56  58
ATOM     58  CA  PHE A   9       3.260  13.715  -0.382  0.00  0.00    +0.141 C 
BRANCH  58  59
ATOM     59  C   PHE A   9       3.165  13.092   1.005  0.00  0.00    +0.227 C 
ATOM     60  O   PHE A   9       3.588  11.938   1.229  0.00  0.00    -0.286 OA
ENDBRANCH  58  59
BRANCH  58  61
ATOM     61  CB  PHE A   9       1.911  13.606  -1.135  0.00  0.00    +0.054 C 
BRANCH  61  62
ATOM     62  CG  PHE A   9       1.509  12.167  -1.504  0.00  0.00    -0.020 A 
ATOM     63  CD2 PHE A   9       0.728  11.388  -0.635  0.00  0.00    -0.004 A 
ATOM     64  CE2 PHE A   9       0.370  10.035  -0.955  0.00  0.00    -0.000 A 
ATOM     65  CZ  PHE A   9       0.760   9.480  -2.147  0.00  0.00    -0.000 A 
ATOM     66  CE1 PHE A   9       1.500  10.247  -3.045  0.00  0.00    -0.000 A 
ATOM     67  CD1 PHE A   9       1.874  11.607  -2.722  0.00  0.00    -0.004 A 
ENDBRANCH  61  62
ENDBRANCH  58  61
ENDBRANCH  56  58
ENDBRANCH  53  54
BRANCH  53  68
ATOM     68  CB  GLU A   8       6.779  13.133  -3.290  0.00  0.00    +0.041 C 
BRANCH  68  69
ATOM     69  CG  GLU A   8       7.917  12.554  -4.079  0.00  0.00    +0.116 C 
BRANCH  69  70
ATOM     70  CD  GLU A   8       9.231  12.598  -3.340  0.00  0.00    +0.365 C 
ATOM     71  OE2 GLU A   8       9.589  13.673  -2.791  0.00  0.00    -0.246 OA
ATOM     72  OE1 GLU A   8       9.916  11.546  -3.341  0.00  0.00    -0.246 OA
ENDBRANCH  69  70
ENDBRANCH  68  69
ENDBRANCH  53  68
ENDBRANCH  51  53
ENDBRANCH  47  49
ENDBRANCH  44  47
ENDBRANCH  42  43
BRANCH  42  73
ATOM     73  CB  LEU A   6       7.205   5.133  -2.861  0.00  0.00    +0.029 C 
BRANCH  73  74
ATOM     74  CG  LEU A   6       7.817   3.748  -2.616  0.00  0.00    +0.002 C 
ATOM     75  CD2 LEU A   6       9.334   3.808  -2.348  0.00  0.00    +0.000 C 
ATOM     76  CD1 LEU A   6       7.460   2.730  -3.763  0.00  0.00    +0.000 C 
ENDBRANCH  73  74
ENDBRANCH  42  73
ENDBRANCH  40  42
ENDBRANCH   1  38
BRANCH   1  77
ATOM     77  CB  MET A   5       8.467   3.979   2.335  0.00  0.00    +0.041 C 
BRANCH  77  78
ATOM     78  CG  MET A   5       9.494   3.585   1.307  0.00  0.00    +0.060 C 
BRANCH  78  79
ATOM     79  SD  MET A   5      10.288   1.950   1.510  0.00  0.00    -0.139 S 
ATOM     80  CE  MET A   5      11.303   2.199   2.984  0.00  0.00    +0.069 C 
ENDBRANCH  78  79
ENDBRANCH  77  78
ENDBRANCH   1  77
TORSDOF 31
REMARK  Name = ../refined-set-2016/3d91/3d91_pocket.pdb
REMARK  255 active torsions:
REMARK  status: ('A' for Active; 'I' for Inactive)
REMARK    1  A    between atoms: _1  and  _3
REMARK    2  A    between atoms: _3  and  _4
REMARK    3  A    between atoms: _3  and  _6
REMARK    4  A    between atoms: _6  and  _7
REMARK    5  A    between atoms: _12  and  _13
REMARK    6  A    between atoms: _15  and  _17
REMARK    7  A    between atoms: _17  and  _18
REMARK    8  A    between atoms: _17  and  _20
REMARK    9  A    between atoms: _20  and  _21
REMARK   10  A    between atoms: _24  and  _26
REMARK   11  A    between atoms: _26  and  _27
REMARK   12  A    between atoms: _26  and  _29
REMARK   13  A    between atoms: _29  and  _30
REMARK   14  A    between atoms: _33  and  _35
REMARK   15  A    between atoms: _35  and  _36
REMARK   16  A    between atoms: _35  and  _38
REMARK   17  A    between atoms: _38  and  _39
REMARK   18  A    between atoms: _39  and  _40
REMARK   19  A    between atoms: _45  and  _47
REMARK   20  A    between atoms: _47  and  _48
REMARK   21  A    between atoms: _47  and  _50
REMARK   22  A    between atoms: _50  and  _51
REMARK   23  A    between atoms: _56  and  _57
REMARK   24  A    between atoms: _59  and  _61
REMARK   25  A    between atoms: _61  and  _62
REMARK   26  A    between atoms: _61  and  _64
REMARK   27  A    between atoms: _67  and  _69
REMARK   28  A    between atoms: _69  and  _70
REMARK   29  A    between atoms: _69  and  _72
REMARK   30  A    between atoms: _75  and  _77
REMARK   31  A    between atoms: _77  and  _78
REMARK   32  A    between atoms: _77  and  _80
REMARK   33  A    between atoms: _80  and  _81
REMARK   34  A    between atoms: _87  and  _89
REMARK   35  A    between atoms: _89  and  _90
REMARK   36  A    between atoms: _89  and  _92
REMARK   37  A    between atoms: _92  and  _93
REMARK   38  A    between atoms: _96  and  _98
REMARK   39  A    between atoms: _98  and  _99
REMARK   40  A    between atoms: _98  and  _101
REMARK   41  A    between atoms: _101  and  _102
REMARK   42  A    between atoms: _105  and  _107
REMARK   43  A    between atoms: _107  and  _108
REMARK   44  A    between atoms: _110  and  _112
REMARK   45  A    between atoms: _112  and  _113
REMARK   46  A    between atoms: _112  and  _115
REMARK   47  A    between atoms: _115  and  _116
REMARK   48  A    between atoms: _118  and  _120
REMARK   49  A    between atoms: _120  and  _121
REMARK   50  A    between atoms: _120  and  _123
REMARK   51  A    between atoms: _123  and  _124
REMARK   52  A    between atoms: _126  and  _128
REMARK   53  A    between atoms: _128  and  _129
REMARK   54  A    between atoms: _128  and  _131
REMARK   55  A    between atoms: _131  and  _132
REMARK   56  A    between atoms: _142  and  _144
REMARK   57  A    between atoms: _144  and  _145
REMARK   58  A    between atoms: _144  and  _147
REMARK   59  A    between atoms: _147  and  _148
REMARK   60  A    between atoms: _153  and  _155
REMARK   61  A    between atoms: _155  and  _156
REMARK   62  A    between atoms: _155  and  _158
REMARK   63  A    between atoms: _158  and  _159
REMARK   64  A    between atoms: _162  and  _164
REMARK   65  A    between atoms: _164  and  _165
REMARK   66  A    between atoms: _164  and  _167
REMARK   67  A    between atoms: _167  and  _168
REMARK   68  A    between atoms: _168  and  _169
REMARK   69  A    between atoms: _169  and  _170
REMARK   70  A    between atoms: _179  and  _181
REMARK   71  A    between atoms: _181  and  _182
REMARK   72  A    between atoms: _181  and  _184
REMARK   73  A    between atoms: _184  and  _185
REMARK   74  A    between atoms: _190  and  _191
REMARK   75  A    between atoms: _193  and  _195
REMARK   76  A    between atoms: _195  and  _196
REMARK   77  A    between atoms: _195  and  _198
REMARK   78  A    between atoms: _198  and  _199
REMARK   79  A    between atoms: _201  and  _203
REMARK   80  A    between atoms: _203  and  _204
REMARK   81  A    between atoms: _203  and  _206
REMARK   82  A    between atoms: _206  and  _207
REMARK   83  A    between atoms: _210  and  _212
REMARK   84  A    between atoms: _212  and  _213
REMARK   85  A    between atoms: _215  and  _217
REMARK   86  A    between atoms: _217  and  _218
REMARK   87  A    between atoms: _217  and  _220
REMARK   88  A    between atoms: _220  and  _221
REMARK   89  A    between atoms: _224  and  _226
REMARK   90  A    between atoms: _226  and  _227
REMARK   91  A    between atoms: _226  and  _229
REMARK   92  A    between atoms: _232  and  _234
REMARK   93  A    between atoms: _234  and  _235
REMARK   94  A    between atoms: _238  and  _240
REMARK   95  A    between atoms: _240  and  _241
REMARK   96  A    between atoms: _240  and  _243
REMARK   97  A    between atoms: _243  and  _244
REMARK   98  A    between atoms: _248  and  _249
REMARK   99  A    between atoms: _254  and  _256
REMARK  100  A    between atoms: _256  and  _257
REMARK  101  A    between atoms: _256  and  _259
REMARK  102  A    between atoms: _259  and  _260
REMARK  103  A    between atoms: _266  and  _268
REMARK  104  A    between atoms: _268  and  _269
REMARK  105  A    between atoms: _268  and  _271
REMARK  106  A    between atoms: _271  and  _272
REMARK  107  A    between atoms: _272  and  _273
REMARK  108  A    between atoms: _275  and  _277
REMARK  109  A    between atoms: _277  and  _278
REMARK  110  A    between atoms: _277  and  _280
REMARK  111  A    between atoms: _280  and  _281
REMARK  112  A    between atoms: _284  and  _286
REMARK  113  A    between atoms: _286  and  _287
REMARK  114  A    between atoms: _290  and  _292
REMARK  115  A    between atoms: _292  and  _293
REMARK  116  A    between atoms: _292  and  _295
REMARK  117  A    between atoms: _295  and  _296
REMARK  118  A    between atoms: _296  and  _297
REMARK  119  A    between atoms: _300  and  _302
REMARK  120  A    between atoms: _302  and  _303
REMARK  121  A    between atoms: _302  and  _305
REMARK  122  A    between atoms: _305  and  _306
REMARK  123  A    between atoms: _312  and  _314
REMARK  124  A    between atoms: _314  and  _315
REMARK  125  A    between atoms: _317  and  _319
REMARK  126  A    between atoms: _319  and  _320
REMARK  127  A    between atoms: _319  and  _322
REMARK  128  A    between atoms: _325  and  _327
REMARK  129  A    between atoms: _327  and  _328
REMARK  130  A    between atoms: _327  and  _330
REMARK  131  A    between atoms: _333  and  _335
REMARK  132  A    between atoms: _335  and  _336
REMARK  133  A    between atoms: _335  and  _338
REMARK  134  A    between atoms: _338  and  _339
REMARK  135  A    between atoms: _339  and  _340
REMARK  136  A    between atoms: _342  and  _344
REMARK  137  A    between atoms: _344  and  _345
REMARK  138  A    between atoms: _344  and  _347
REMARK  139  A    between atoms: _347  and  _348
REMARK  140  A    between atoms: _348  and  _349
REMARK  141  A    between atoms: _354  and  _356
REMARK  142  A    between atoms: _356  and  _357
REMARK  143  A    between atoms: _356  and  _359
REMARK  144  A    between atoms: _362  and  _364
REMARK  145  A    between atoms: _364  and  _365
REMARK  146  A    between atoms: _364  and  _367
REMARK  147  A    between atoms: _367  and  _368
REMARK  148  A    between atoms: _378  and  _380
REMARK  149  A    between atoms: _380  and  _381
REMARK  150  A    between atoms: _380  and  _383
REMARK  151  A    between atoms: _383  and  _384
REMARK  152  A    between atoms: _387  and  _389
REMARK  153  A    between atoms: _389  and  _390
REMARK  154  A    between atoms: _389  and  _392
REMARK  155  A    between atoms: _395  and  _397
REMARK  156  A    between atoms: _397  and  _398
REMARK  157  A    between atoms: _397  and  _400
REMARK  158  A    between atoms: _400  and  _401
REMARK  159  A    between atoms: _404  and  _406
REMARK  160  A    between atoms: _406  and  _407
REMARK  161  A    between atoms: _406  and  _409
REMARK  162  A    between atoms: _409  and  _410
REMARK  163  A    between atoms: _413  and  _415
REMARK  164  A    between atoms: _415  and  _416
REMARK  165  A    between atoms: _418  and  _420
REMARK  166  A    between atoms: _420  and  _421
REMARK  167  A    between atoms: _424  and  _426
REMARK  168  A    between atoms: _426  and  _427
REMARK  169  A    between atoms: _426  and  _429
REMARK  170  A    between atoms: _429  and  _430
REMARK  171  A    between atoms: _432  and  _434
REMARK  172  A    between atoms: _434  and  _435
REMARK  173  A    between atoms: _434  and  _437
REMARK  174  A    between atoms: _437  and  _438
REMARK  175  A    between atoms: _443  and  _444
REMARK  176  A    between atoms: _446  and  _448
REMARK  177  A    between atoms: _448  and  _449
REMARK  178  A    between atoms: _448  and  _451
REMARK  179  A    between atoms: _451  and  _452
REMARK  180  A    between atoms: _455  and  _457
REMARK  181  A    between atoms: _457  and  _458
REMARK  182  A    between atoms: _457  and  _460
REMARK  183  A    between atoms: _460  and  _461
REMARK  184  A    between atoms: _463  and  _465
REMARK  185  A    between atoms: _465  and  _466
REMARK  186  A    between atoms: _468  and  _470
REMARK  187  A    between atoms: _470  and  _471
REMARK  188  A    between atoms: _470  and  _473
REMARK  189  A    between atoms: _473  and  _474
REMARK  190  A    between atoms: _480  and  _482
REMARK  191  A    between atoms: _482  and  _483
REMARK  192  A    between atoms: _482  and  _485
REMARK  193  A    between atoms: _485  and  _486
REMARK  194  A    between atoms: _489  and  _491
REMARK  195  A    between atoms: _491  and  _492
REMARK  196  A    between atoms: _491  and  _494
REMARK  197  A    between atoms: _494  and  _495
REMARK  198  A    between atoms: _501  and  _503
REMARK  199  A    between atoms: _503  and  _504
REMARK  200  A    between atoms: _503  and  _506
REMARK  201  A    between atoms: _506  and  _507
REMARK  202  A    between atoms: _510  and  _512
REMARK  203  A    between atoms: _512  and  _513
REMARK  204  A    between atoms: _512  and  _515
REMARK  205  A    between atoms: _515  and  _516
REMARK  206  A    between atoms: _519  and  _521
REMARK  207  A    between atoms: _521  and  _522
REMARK  208  A    between atoms: _525  and  _527
REMARK  209  A    between atoms: _527  and  _528
REMARK  210  A    between atoms: _527  and  _530
REMARK  211  A    between atoms: _530  and  _531
REMARK  212  A    between atoms: _534  and  _536
REMARK  213  A    between atoms: _536  and  _537
REMARK  214  A    between atoms: _536  and  _539
REMARK  215  A    between atoms: _539  and  _540
REMARK  216  A    between atoms: _545  and  _547
REMARK  217  A    between atoms: _547  and  _548
REMARK  218  A    between atoms: _551  and  _553
REMARK  219  A    between atoms: _553  and  _554
REMARK  220  A    between atoms: _553  and  _556
REMARK  221  A    between atoms: _556  and  _557
REMARK  222  A    between atoms: _557  and  _558
REMARK  223  A    between atoms: _560  and  _562
REMARK  224  A    between atoms: _562  and  _563
REMARK  225  A    between atoms: _562  and  _565
REMARK  226  A    between atoms: _565  and  _566
REMARK  227  A    between atoms: _569  and  _571
REMARK  228  A    between atoms: _571  and  _572
REMARK  229  A    between atoms: _571  and  _574
REMARK  230  A    between atoms: _574  and  _575
REMARK  231  A    between atoms: _579  and  _580
REMARK  232  A    between atoms: _585  and  _587
REMARK  233  A    between atoms: _587  and  _588
REMARK  234  A    between atoms: _587  and  _590
REMARK  235  A    between atoms: _590  and  _591
REMARK  236  A    between atoms: _594  and  _596
REMARK  237  A    between atoms: _596  and  _597
REMARK  238  A    between atoms: _599  and  _601
REMARK  239  A    between atoms: _601  and  _602
REMARK  240  A    between atoms: _601  and  _604
REMARK  241  A    between atoms: _604  and  _605
REMARK  242  A    between atoms: _608  and  _610
REMARK  243  A    between atoms: _610  and  _611
REMARK  244  A    between atoms: _610  and  _613
REMARK  245  A    between atoms: _613  and  _614
REMARK  246  A    between atoms: _624  and  _626
REMARK  247  A    between atoms: _626  and  _627
REMARK  248  A    between atoms: _630  and  _632
REMARK  249  A    between atoms: _632  and  _633
REMARK  250  A    between atoms: _632  and  _635
REMARK  251  A    between atoms: _635  and  _636
REMARK  252  A    between atoms: _639  and  _641
REMARK  253  A    between atoms: _641  and  _642
REMARK  254  A    between atoms: _644  and  _646
REMARK  255  A    between atoms: _646  and  _647
REMARK                            x       y       z     vdW  Elec       q    Type
REMARK                         _______ _______ _______ _____ _____    ______ ____
ROOT
ATOM      1  CA  VAL A   2      -4.555  13.165   1.007  0.00  0.00    +0.148 C 
ENDROOT
BRANCH   1   3
ATOM      2  C   GLY A   1      -2.267  13.263   1.749  0.00  0.00    +0.240 C 
ATOM      3  N   VAL A   2      -3.548  13.188   2.022  0.00  0.00    -0.297 N 
ATOM      4  H   VAL A   2      -3.843  13.143   3.018  0.00  0.00    +0.150 HD
ATOM      5  O   GLY A   1      -1.869  13.250   0.616  0.00  0.00    -0.274 OA
BRANCH   2   6
ATOM      6  CA  GLY A   1      -1.341  13.373   2.947  0.00  0.00    +0.169 C 
BRANCH   6   7
ATOM      7  N   GLY A   1       0.087  13.468   2.684  0.00  0.00    -0.236 NA
ATOM      8  H   GLY A   1       0.396  14.004   1.848  0.00  0.00    +0.142 HD
ENDBRANCH   6   7
ENDBRANCH   2   6
ENDBRANCH   1   3
BRANCH   1   9
ATOM      9  C   VAL A   2      -5.861  13.921   1.389  0.00  0.00    +0.241 C 
ATOM     10  O   VAL A   2      -6.214  14.123   2.519  0.00  0.00    -0.273 OA
ATOM     11  N   VAL A   3      -6.598  14.360   0.403  0.00  0.00    -0.298 N 
ATOM     12  H   VAL A   3      -6.313  14.187  -0.582  0.00  0.00    +0.150 HD
BRANCH  11  13
ATOM     13  CA  VAL A   3      -7.798  15.080   0.690  0.00  0.00    +0.137 C 
BRANCH  13  14
ATOM     14  CB  VAL A   3      -7.578  16.571   0.264  0.00  0.00    +0.026 C 
ATOM     15  CG2 VAL A   3      -6.599  17.084   1.141  0.00  0.00    +0.002 C 
ATOM     16  CG1 VAL A   3      -8.862  17.320   0.320  0.00  0.00    +0.002 C 
ENDBRANCH  13  14
BRANCH  13  17
ATOM     17  C   VAL A   3      -8.773  14.509  -0.233  0.00  0.00    +0.227 C 
ATOM     18  O   VAL A   3      -8.555  14.522  -1.447  0.00  0.00    -0.286 OA
ENDBRANCH  13  17
ENDBRANCH  11  13
ENDBRANCH   1   9
BRANCH   1  19
ATOM     19  CB  VAL A   2      -4.875  11.662   0.431  0.00  0.00    +0.027 C 
ATOM     20  CG2 VAL A   2      -4.016  10.548   1.070  0.00  0.00    +0.002 C 
ATOM     21  CG1 VAL A   2      -6.358  11.422   0.353  0.00  0.00    +0.002 C 
ENDBRANCH   1  19
TORSDOF 8
REMARK  Name = ../refined-set-2016/3d91/3d91_pocket.pdb
REMARK  255 active torsions:
REMARK  status: ('A' for Active; 'I' for Inactive)
REMARK    1  A    between atoms: _1  and  _3
REMARK    2  A    between atoms: _3  and  _4
REMARK    3  A    between atoms: _3  and  _6
REMARK    4  A    between atoms: _6  and  _7
REMARK    5  A    between atoms: _12  and  _13
REMARK    6  A    between atoms: _15  and  _17
REMARK    7  A    between atoms: _17  and  _18
REMARK    8  A    between atoms: _17  and  _20
REMARK    9  A    between atoms: _20  and  _21
REMARK   10  A    between atoms: _24  and  _26
REMARK   11  A    between atoms: _26  and  _27
REMARK   12  A    between atoms: _26  and  _29
REMARK   13  A    between atoms: _29  and  _30
REMARK   14  A    between atoms: _33  and  _35
REMARK   15  A    between atoms: _35  and  _36
REMARK   16  A    between atoms: _35  and  _38
REMARK   17  A    between atoms: _38  and  _39
REMARK   18  A    between atoms: _39  and  _40
REMARK   19  A    between atoms: _45  and  _47
REMARK   20  A    between atoms: _47  and  _48
REMARK   21  A    between atoms: _47  and  _50
REMARK   22  A    between atoms: _50  and  _51
REMARK   23  A    between atoms: _56  and  _57
REMARK   24  A    between atoms: _59  and  _61
REMARK   25  A    between atoms: _61  and  _62
REMARK   26  A    between atoms: _61  and  _64
REMARK   27  A    between atoms: _67  and  _69
REMARK   28  A    between atoms: _69  and  _70
REMARK   29  A    between atoms: _69  and  _72
REMARK   30  A    between atoms: _75  and  _77
REMARK   31  A    between atoms: _77  and  _78
REMARK   32  A    between atoms: _77  and  _80
REMARK   33  A    between atoms: _80  and  _81
REMARK   34  A    between atoms: _87  and  _89
REMARK   35  A    between atoms: _89  and  _90
REMARK   36  A    between atoms: _89  and  _92
REMARK   37  A    between atoms: _92  and  _93
REMARK   38  A    between atoms: _96  and  _98
REMARK   39  A    between atoms: _98  and  _99
REMARK   40  A    between atoms: _98  and  _101
REMARK   41  A    between atoms: _101  and  _102
REMARK   42  A    between atoms: _105  and  _107
REMARK   43  A    between atoms: _107  and  _108
REMARK   44  A    between atoms: _110  and  _112
REMARK   45  A    between atoms: _112  and  _113
REMARK   46  A    between atoms: _112  and  _115
REMARK   47  A    between atoms: _115  and  _116
REMARK   48  A    between atoms: _118  and  _120
REMARK   49  A    between atoms: _120  and  _121
REMARK   50  A    between atoms: _120  and  _123
REMARK   51  A    between atoms: _123  and  _124
REMARK   52  A    between atoms: _126  and  _128
REMARK   53  A    between atoms: _128  and  _129
REMARK   54  A    between atoms: _128  and  _131
REMARK   55  A    between atoms: _131  and  _132
REMARK   56  A    between atoms: _142  and  _144
REMARK   57  A    between atoms: _144  and  _145
REMARK   58  A    between atoms: _144  and  _147
REMARK   59  A    between atoms: _147  and  _148
REMARK   60  A    between atoms: _153  and  _155
REMARK   61  A    between atoms: _155  and  _156
REMARK   62  A    between atoms: _155  and  _158
REMARK   63  A    between atoms: _158  and  _159
REMARK   64  A    between atoms: _162  and  _164
REMARK   65  A    between atoms: _164  and  _165
REMARK   66  A    between atoms: _164  and  _167
REMARK   67  A    between atoms: _167  and  _168
REMARK   68  A    between atoms: _168  and  _169
REMARK   69  A    between atoms: _169  and  _170
REMARK   70  A    between atoms: _179  and  _181
REMARK   71  A    between atoms: _181  and  _182
REMARK   72  A    between atoms: _181  and  _184
REMARK   73  A    between atoms: _184  and  _185
REMARK   74  A    between atoms: _190  and  _191
REMARK   75  A    between atoms: _193  and  _195
REMARK   76  A    between atoms: _195  and  _196
REMARK   77  A    between atoms: _195  and  _198
REMARK   78  A    between atoms: _198  and  _199
REMARK   79  A    between atoms: _201  and  _203
REMARK   80  A    between atoms: _203  and  _204
REMARK   81  A    between atoms: _203  and  _206
REMARK   82  A    between atoms: _206  and  _207
REMARK   83  A    between atoms: _210  and  _212
REMARK   84  A    between atoms: _212  and  _213
REMARK   85  A    between atoms: _215  and  _217
REMARK   86  A    between atoms: _217  and  _218
REMARK   87  A    between atoms: _217  and  _220
REMARK   88  A    between atoms: _220  and  _221
REMARK   89  A    between atoms: _224  and  _226
REMARK   90  A    between atoms: _226  and  _227
REMARK   91  A    between atoms: _226  and  _229
REMARK   92  A    between atoms: _232  and  _234
REMARK   93  A    between atoms: _234  and  _235
REMARK   94  A    between atoms: _238  and  _240
REMARK   95  A    between atoms: _240  and  _241
REMARK   96  A    between atoms: _240  and  _243
REMARK   97  A    between atoms: _243  and  _244
REMARK   98  A    between atoms: _248  and  _249
REMARK   99  A    between atoms: _254  and  _256
REMARK  100  A    between atoms: _256  and  _257
REMARK  101  A    between atoms: _256  and  _259
REMARK  102  A    between atoms: _259  and  _260
REMARK  103  A    between atoms: _266  and  _268
REMARK  104  A    between atoms: _268  and  _269
REMARK  105  A    between atoms: _268  and  _271
REMARK  106  A    between atoms: _271  and  _272
REMARK  107  A    between atoms: _272  and  _273
REMARK  108  A    between atoms: _275  and  _277
REMARK  109  A    between atoms: _277  and  _278
REMARK  110  A    between atoms: _277  and  _280
REMARK  111  A    between atoms: _280  and  _281
REMARK  112  A    between atoms: _284  and  _286
REMARK  113  A    between atoms: _286  and  _287
REMARK  114  A    between atoms: _290  and  _292
REMARK  115  A    between atoms: _292  and  _293
REMARK  116  A    between atoms: _292  and  _295
REMARK  117  A    between atoms: _295  and  _296
REMARK  118  A    between atoms: _296  and  _297
REMARK  119  A    between atoms: _300  and  _302
REMARK  120  A    between atoms: _302  and  _303
REMARK  121  A    between atoms: _302  and  _305
REMARK  122  A    between atoms: _305  and  _306
REMARK  123  A    between atoms: _312  and  _314
REMARK  124  A    between atoms: _314  and  _315
REMARK  125  A    between atoms: _317  and  _319
REMARK  126  A    between atoms: _319  and  _320
REMARK  127  A    between atoms: _319  and  _322
REMARK  128  A    between atoms: _325  and  _327
REMARK  129  A    between atoms: _327  and  _328
REMARK  130  A    between atoms: _327  and  _330
REMARK  131  A    between atoms: _333  and  _335
REMARK  132  A    between atoms: _335  and  _336
REMARK  133  A    between atoms: _335  and  _338
REMARK  134  A    between atoms: _338  and  _339
REMARK  135  A    between atoms: _339  and  _340
REMARK  136  A    between atoms: _342  and  _344
REMARK  137  A    between atoms: _344  and  _345
REMARK  138  A    between atoms: _344  and  _347
REMARK  139  A    between atoms: _347  and  _348
REMARK  140  A    between atoms: _348  and  _349
REMARK  141  A    between atoms: _354  and  _356
REMARK  142  A    between atoms: _356  and  _357
REMARK  143  A    between atoms: _356  and  _359
REMARK  144  A    between atoms: _362  and  _364
REMARK  145  A    between atoms: _364  and  _365
REMARK  146  A    between atoms: _364  and  _367
REMARK  147  A    between atoms: _367  and  _368
REMARK  148  A    between atoms: _378  and  _380
REMARK  149  A    between atoms: _380  and  _381
REMARK  150  A    between atoms: _380  and  _383
REMARK  151  A    between atoms: _383  and  _384
REMARK  152  A    between atoms: _387  and  _389
REMARK  153  A    between atoms: _389  and  _390
REMARK  154  A    between atoms: _389  and  _392
REMARK  155  A    between atoms: _395  and  _397
REMARK  156  A    between atoms: _397  and  _398
REMARK  157  A    between atoms: _397  and  _400
REMARK  158  A    between atoms: _400  and  _401
REMARK  159  A    between atoms: _404  and  _406
REMARK  160  A    between atoms: _406  and  _407
REMARK  161  A    between atoms: _406  and  _409
REMARK  162  A    between atoms: _409  and  _410
REMARK  163  A    between atoms: _413  and  _415
REMARK  164  A    between atoms: _415  and  _416
REMARK  165  A    between atoms: _418  and  _420
REMARK  166  A    between atoms: _420  and  _421
REMARK  167  A    between atoms: _424  and  _426
REMARK  168  A    between atoms: _426  and  _427
REMARK  169  A    between atoms: _426  and  _429
REMARK  170  A    between atoms: _429  and  _430
REMARK  171  A    between atoms: _432  and  _434
REMARK  172  A    between atoms: _434  and  _435
REMARK  173  A    between atoms: _434  and  _437
REMARK  174  A    between atoms: _437  and  _438
REMARK  175  A    between atoms: _443  and  _444
REMARK  176  A    between atoms: _446  and  _448
REMARK  177  A    between atoms: _448  and  _449
REMARK  178  A    between atoms: _448  and  _451
REMARK  179  A    between atoms: _451  and  _452
REMARK  180  A    between atoms: _455  and  _457
REMARK  181  A    between atoms: _457  and  _458
REMARK  182  A    between atoms: _457  and  _460
REMARK  183  A    between atoms: _460  and  _461
REMARK  184  A    between atoms: _463  and  _465
REMARK  185  A    between atoms: _465  and  _466
REMARK  186  A    between atoms: _468  and  _470
REMARK  187  A    between atoms: _470  and  _471
REMARK  188  A    between atoms: _470  and  _473
REMARK  189  A    between atoms: _473  and  _474
REMARK  190  A    between atoms: _480  and  _482
REMARK  191  A    between atoms: _482  and  _483
REMARK  192  A    between atoms: _482  and  _485
REMARK  193  A    between atoms: _485  and  _486
REMARK  194  A    between atoms: _489  and  _491
REMARK  195  A    between atoms: _491  and  _492
REMARK  196  A    between atoms: _491  and  _494
REMARK  197  A    between atoms: _494  and  _495
REMARK  198  A    between atoms: _501  and  _503
REMARK  199  A    between atoms: _503  and  _504
REMARK  200  A    between atoms: _503  and  _506
REMARK  201  A    between atoms: _506  and  _507
REMARK  202  A    between atoms: _510  and  _512
REMARK  203  A    between atoms: _512  and  _513
REMARK  204  A    between atoms: _512  and  _515
REMARK  205  A    between atoms: _515  and  _516
REMARK  206  A    between atoms: _519  and  _521
REMARK  207  A    between atoms: _521  and  _522
REMARK  208  A    between atoms: _525  and  _527
REMARK  209  A    between atoms: _527  and  _528
REMARK  210  A    between atoms: _527  and  _530
REMARK  211  A    between atoms: _530  and  _531
REMARK  212  A    between atoms: _534  and  _536
REMARK  213  A    between atoms: _536  and  _537
REMARK  214  A    between atoms: _536  and  _539
REMARK  215  A    between atoms: _539  and  _540
REMARK  216  A    between atoms: _545  and  _547
REMARK  217  A    between atoms: _547  and  _548
REMARK  218  A    between atoms: _551  and  _553
REMARK  219  A    between atoms: _553  and  _554
REMARK  220  A    between atoms: _553  and  _556
REMARK  221  A    between atoms: _556  and  _557
REMARK  222  A    between atoms: _557  and  _558
REMARK  223  A    between atoms: _560  and  _562
REMARK  224  A    between atoms: _562  and  _563
REMARK  225  A    between atoms: _562  and  _565
REMARK  226  A    between atoms: _565  and  _566
REMARK  227  A    between atoms: _569  and  _571
REMARK  228  A    between atoms: _571  and  _572
REMARK  229  A    between atoms: _571  and  _574
REMARK  230  A    between atoms: _574  and  _575
REMARK  231  A    between atoms: _579  and  _580
REMARK  232  A    between atoms: _585  and  _587
REMARK  233  A    between atoms: _587  and  _588
REMARK  234  A    between atoms: _587  and  _590
REMARK  235  A    between atoms: _590  and  _591
REMARK  236  A    between atoms: _594  and  _596
REMARK  237  A    between atoms: _596  and  _597
REMARK  238  A    between atoms: _599  and  _601
REMARK  239  A    between atoms: _601  and  _602
REMARK  240  A    between atoms: _601  and  _604
REMARK  241  A    between atoms: _604  and  _605
REMARK  242  A    between atoms: _608  and  _610
REMARK  243  A    between atoms: _610  and  _611
REMARK  244  A    between atoms: _610  and  _613
REMARK  245  A    between atoms: _613  and  _614
REMARK  246  A    between atoms: _624  and  _626
REMARK  247  A    between atoms: _626  and  _627
REMARK  248  A    between atoms: _630  and  _632
REMARK  249  A    between atoms: _632  and  _633
REMARK  250  A    between atoms: _632  and  _635
REMARK  251  A    between atoms: _635  and  _636
REMARK  252  A    between atoms: _639  and  _641
REMARK  253  A    between atoms: _641  and  _642
REMARK  254  A    between atoms: _644  and  _646
REMARK  255  A    between atoms: _646  and  _647
REMARK                            x       y       z     vdW  Elec       q    Type
REMARK                         _______ _______ _______ _____ _____    ______ ____
ROOT
ATOM      1  CA  MET A   1     -12.658  15.093  -3.134  0.00  0.00    +0.134 C 
ENDROOT
BRANCH   1   2
ATOM      2  N   MET A   1     -11.942  14.092  -2.402  0.00  0.00    -0.239 NA
ATOM      3  H   MET A   1     -11.596  13.243  -2.893  0.00  0.00    +0.142 HD
ENDBRANCH   1   2
BRANCH   1   4
ATOM      4  C   MET A   1     -13.946  14.457  -3.539  0.00  0.00    +0.224 C 
ATOM      5  O   MET A   1     -14.644  14.984  -4.385  0.00  0.00    -0.287 OA
ENDBRANCH   1   4
BRANCH   1   6
ATOM      6  CB  MET A   1     -11.851  15.547  -4.357  0.00  0.00    +0.037 C 
BRANCH   6   7
ATOM      7  CG  MET A   1     -10.773  16.591  -4.114  0.00  0.00    +0.059 C 
BRANCH   7   8
ATOM      8  SD  MET A   1     -11.315  17.971  -3.107  0.00  0.00    -0.139 S 
ATOM      9  CE  MET A   1     -11.504  19.394  -4.211  0.00  0.00    +0.069 C 
ENDBRANCH   7   8
ENDBRANCH   6   7
ENDBRANCH   1   6
TORSDOF 5
REMARK  Name = ../refined-set-2016/3d91/3d91_pocket.pdb
REMARK  255 active torsions:
REMARK  status: ('A' for Active; 'I' for Inactive)
REMARK    1  A    between atoms: _1  and  _3
REMARK    2  A    between atoms: _3  and  _4
REMARK    3  A    between atoms: _3  and  _6
REMARK    4  A    between atoms: _6  and  _7
REMARK    5  A    between atoms: _12  and  _13
REMARK    6  A    between atoms: _15  and  _17
REMARK    7  A    between atoms: _17  and  _18
REMARK    8  A    between atoms: _17  and  _20
REMARK    9  A    between atoms: _20  and  _21
REMARK   10  A    between atoms: _24  and  _26
REMARK   11  A    between atoms: _26  and  _27
REMARK   12  A    between atoms: _26  and  _29
REMARK   13  A    between atoms: _29  and  _30
REMARK   14  A    between atoms: _33  and  _35
REMARK   15  A    between atoms: _35  and  _36
REMARK   16  A    between atoms: _35  and  _38
REMARK   17  A    between atoms: _38  and  _39
REMARK   18  A    between atoms: _39  and  _40
REMARK   19  A    between atoms: _45  and  _47
REMARK   20  A    between atoms: _47  and  _48
REMARK   21  A    between atoms: _47  and  _50
REMARK   22  A    between atoms: _50  and  _51
REMARK   23  A    between atoms: _56  and  _57
REMARK   24  A    between atoms: _59  and  _61
REMARK   25  A    between atoms: _61  and  _62
REMARK   26  A    between atoms: _61  and  _64
REMARK   27  A    between atoms: _67  and  _69
REMARK   28  A    between atoms: _69  and  _70
REMARK   29  A    between atoms: _69  and  _72
REMARK   30  A    between atoms: _75  and  _77
REMARK   31  A    between atoms: _77  and  _78
REMARK   32  A    between atoms: _77  and  _80
REMARK   33  A    between atoms: _80  and  _81
REMARK   34  A    between atoms: _87  and  _89
REMARK   35  A    between atoms: _89  and  _90
REMARK   36  A    between atoms: _89  and  _92
REMARK   37  A    between atoms: _92  and  _93
REMARK   38  A    between atoms: _96  and  _98
REMARK   39  A    between atoms: _98  and  _99
REMARK   40  A    between atoms: _98  and  _101
REMARK   41  A    between atoms: _101  and  _102
REMARK   42  A    between atoms: _105  and  _107
REMARK   43  A    between atoms: _107  and  _108
REMARK   44  A    between atoms: _110  and  _112
REMARK   45  A    between atoms: _112  and  _113
REMARK   46  A    between atoms: _112  and  _115
REMARK   47  A    between atoms: _115  and  _116
REMARK   48  A    between atoms: _118  and  _120
REMARK   49  A    between atoms: _120  and  _121
REMARK   50  A    between atoms: _120  and  _123
REMARK   51  A    between atoms: _123  and  _124
REMARK   52  A    between atoms: _126  and  _128
REMARK   53  A    between atoms: _128  and  _129
REMARK   54  A    between atoms: _128  and  _131
REMARK   55  A    between atoms: _131  and  _132
REMARK   56  A    between atoms: _142  and  _144
REMARK   57  A    between atoms: _144  and  _145
REMARK   58  A    between atoms: _144  and  _147
REMARK   59  A    between atoms: _147  and  _148
REMARK   60  A    between atoms: _153  and  _155
REMARK   61  A    between atoms: _155  and  _156
REMARK   62  A    between atoms: _155  and  _158
REMARK   63  A    between atoms: _158  and  _159
REMARK   64  A    between atoms: _162  and  _164
REMARK   65  A    between atoms: _164  and  _165
REMARK   66  A    between atoms: _164  and  _167
REMARK   67  A    between atoms: _167  and  _168
REMARK   68  A    between atoms: _168  and  _169
REMARK   69  A    between atoms: _169  and  _170
REMARK   70  A    between atoms: _179  and  _181
REMARK   71  A    between atoms: _181  and  _182
REMARK   72  A    between atoms: _181  and  _184
REMARK   73  A    between atoms: _184  and  _185
REMARK   74  A    between atoms: _190  and  _191
REMARK   75  A    between atoms: _193  and  _195
REMARK   76  A    between atoms: _195  and  _196
REMARK   77  A    between atoms: _195  and  _198
REMARK   78  A    between atoms: _198  and  _199
REMARK   79  A    between atoms: _201  and  _203
REMARK   80  A    between atoms: _203  and  _204
REMARK   81  A    between atoms: _203  and  _206
REMARK   82  A    between atoms: _206  and  _207
REMARK   83  A    between atoms: _210  and  _212
REMARK   84  A    between atoms: _212  and  _213
REMARK   85  A    between atoms: _215  and  _217
REMARK   86  A    between atoms: _217  and  _218
REMARK   87  A    between atoms: _217  and  _220
REMARK   88  A    between atoms: _220  and  _221
REMARK   89  A    between atoms: _224  and  _226
REMARK   90  A    between atoms: _226  and  _227
REMARK   91  A    between atoms: _226  and  _229
REMARK   92  A    between atoms: _232  and  _234
REMARK   93  A    between atoms: _234  and  _235
REMARK   94  A    between atoms: _238  and  _240
REMARK   95  A    between atoms: _240  and  _241
REMARK   96  A    between atoms: _240  and  _243
REMARK   97  A    between atoms: _243  and  _244
REMARK   98  A    between atoms: _248  and  _249
REMARK   99  A    between atoms: _254  and  _256
REMARK  100  A    between atoms: _256  and  _257
REMARK  101  A    between atoms: _256  and  _259
REMARK  102  A    between atoms: _259  and  _260
REMARK  103  A    between atoms: _266  and  _268
REMARK  104  A    between atoms: _268  and  _269
REMARK  105  A    between atoms: _268  and  _271
REMARK  106  A    between atoms: _271  and  _272
REMARK  107  A    between atoms: _272  and  _273
REMARK  108  A    between atoms: _275  and  _277
REMARK  109  A    between atoms: _277  and  _278
REMARK  110  A    between atoms: _277  and  _280
REMARK  111  A    between atoms: _280  and  _281
REMARK  112  A    between atoms: _284  and  _286
REMARK  113  A    between atoms: _286  and  _287
REMARK  114  A    between atoms: _290  and  _292
REMARK  115  A    between atoms: _292  and  _293
REMARK  116  A    between atoms: _292  and  _295
REMARK  117  A    between atoms: _295  and  _296
REMARK  118  A    between atoms: _296  and  _297
REMARK  119  A    between atoms: _300  and  _302
REMARK  120  A    between atoms: _302  and  _303
REMARK  121  A    between atoms: _302  and  _305
REMARK  122  A    between atoms: _305  and  _306
REMARK  123  A    between atoms: _312  and  _314
REMARK  124  A    between atoms: _314  and  _315
REMARK  125  A    between atoms: _317  and  _319
REMARK  126  A    between atoms: _319  and  _320
REMARK  127  A    between atoms: _319  and  _322
REMARK  128  A    between atoms: _325  and  _327
REMARK  129  A    between atoms: _327  and  _328
REMARK  130  A    between atoms: _327  and  _330
REMARK  131  A    between atoms: _333  and  _335
REMARK  132  A    between atoms: _335  and  _336
REMARK  133  A    between atoms: _335  and  _338
REMARK  134  A    between atoms: _338  and  _339
REMARK  135  A    between atoms: _339  and  _340
REMARK  136  A    between atoms: _342  and  _344
REMARK  137  A    between atoms: _344  and  _345
REMARK  138  A    between atoms: _344  and  _347
REMARK  139  A    between atoms: _347  and  _348
REMARK  140  A    between atoms: _348  and  _349
REMARK  141  A    between atoms: _354  and  _356
REMARK  142  A    between atoms: _356  and  _357
REMARK  143  A    between atoms: _356  and  _359
REMARK  144  A    between atoms: _362  and  _364
REMARK  145  A    between atoms: _364  and  _365
REMARK  146  A    between atoms: _364  and  _367
REMARK  147  A    between atoms: _367  and  _368
REMARK  148  A    between atoms: _378  and  _380
REMARK  149  A    between atoms: _380  and  _381
REMARK  150  A    between atoms: _380  and  _383
REMARK  151  A    between atoms: _383  and  _384
REMARK  152  A    between atoms: _387  and  _389
REMARK  153  A    between atoms: _389  and  _390
REMARK  154  A    between atoms: _389  and  _392
REMARK  155  A    between atoms: _395  and  _397
REMARK  156  A    between atoms: _397  and  _398
REMARK  157  A    between atoms: _397  and  _400
REMARK  158  A    between atoms: _400  and  _401
REMARK  159  A    between atoms: _404  and  _406
REMARK  160  A    between atoms: _406  and  _407
REMARK  161  A    between atoms: _406  and  _409
REMARK  162  A    between atoms: _409  and  _410
REMARK  163  A    between atoms: _413  and  _415
REMARK  164  A    between atoms: _415  and  _416
REMARK  165  A    between atoms: _418  and  _420
REMARK  166  A    between atoms: _420  and  _421
REMARK  167  A    between atoms: _424  and  _426
REMARK  168  A    between atoms: _426  and  _427
REMARK  169  A    between atoms: _426  and  _429
REMARK  170  A    between atoms: _429  and  _430
REMARK  171  A    between atoms: _432  and  _434
REMARK  172  A    between atoms: _434  and  _435
REMARK  173  A    between atoms: _434  and  _437
REMARK  174  A    between atoms: _437  and  _438
REMARK  175  A    between atoms: _443  and  _444
REMARK  176  A    between atoms: _446  and  _448
REMARK  177  A    between atoms: _448  and  _449
REMARK  178  A    between atoms: _448  and  _451
REMARK  179  A    between atoms: _451  and  _452
REMARK  180  A    between atoms: _455  and  _457
REMARK  181  A    between atoms: _457  and  _458
REMARK  182  A    between atoms: _457  and  _460
REMARK  183  A    between atoms: _460  and  _461
REMARK  184  A    between atoms: _463  and  _465
REMARK  185  A    between atoms: _465  and  _466
REMARK  186  A    between atoms: _468  and  _470
REMARK  187  A    between atoms: _470  and  _471
REMARK  188  A    between atoms: _470  and  _473
REMARK  189  A    between atoms: _473  and  _474
REMARK  190  A    between atoms: _480  and  _482
REMARK  191  A    between atoms: _482  and  _483
REMARK  192  A    between atoms: _482  and  _485
REMARK  193  A    between atoms: _485  and  _486
REMARK  194  A    between atoms: _489  and  _491
REMARK  195  A    between atoms: _491  and  _492
REMARK  196  A    between atoms: _491  and  _494
REMARK  197  A    between atoms: _494  and  _495
REMARK  198  A    between atoms: _501  and  _503
REMARK  199  A    between atoms: _503  and  _504
REMARK  200  A    between atoms: _503  and  _506
REMARK  201  A    between atoms: _506  and  _507
REMARK  202  A    between atoms: _510  and  _512
REMARK  203  A    between atoms: _512  and  _513
REMARK  204  A    between atoms: _512  and  _515
REMARK  205  A    between atoms: _515  and  _516
REMARK  206  A    between atoms: _519  and  _521
REMARK  207  A    between atoms: _521  and  _522
REMARK  208  A    between atoms: _525  and  _527
REMARK  209  A    between atoms: _527  and  _528
REMARK  210  A    between atoms: _527  and  _530
REMARK  211  A    between atoms: _530  and  _531
REMARK  212  A    between atoms: _534  and  _536
REMARK  213  A    between atoms: _536  and  _537
REMARK  214  A    between atoms: _536  and  _539
REMARK  215  A    between atoms: _539  and  _540
REMARK  216  A    between atoms: _545  and  _547
REMARK  217  A    between atoms: _547  and  _548
REMARK  218  A    between atoms: _551  and  _553
REMARK  219  A    between atoms: _553  and  _554
REMARK  220  A    between atoms: _553  and  _556
REMARK  221  A    between atoms: _556  and  _557
REMARK  222  A    between atoms: _557  and  _558
REMARK  223  A    between atoms: _560  and  _562
REMARK  224  A    between atoms: _562  and  _563
REMARK  225  A    between atoms: _562  and  _565
REMARK  226  A    between atoms: _565  and  _566
REMARK  227  A    between atoms: _569  and  _571
REMARK  228  A    between atoms: _571  and  _572
REMARK  229  A    between atoms: _571  and  _574
REMARK  230  A    between atoms: _574  and  _575
REMARK  231  A    between atoms: _579  and  _580
REMARK  232  A    between atoms: _585  and  _587
REMARK  233  A    between atoms: _587  and  _588
REMARK  234  A    between atoms: _587  and  _590
REMARK  235  A    between atoms: _590  and  _591
REMARK  236  A    between atoms: _594  and  _596
REMARK  237  A    between atoms: _596  and  _597
REMARK  238  A    between atoms: _599  and  _601
REMARK  239  A    between atoms: _601  and  _602
REMARK  240  A    between atoms: _601  and  _604
REMARK  241  A    between atoms: _604  and  _605
REMARK  242  A    between atoms: _608  and  _610
REMARK  243  A    between atoms: _610  and  _611
REMARK  244  A    between atoms: _610  and  _613
REMARK  245  A    between atoms: _613  and  _614
REMARK  246  A    between atoms: _624  and  _626
REMARK  247  A    between atoms: _626  and  _627
REMARK  248  A    between atoms: _630  and  _632
REMARK  249  A    between atoms: _632  and  _633
REMARK  250  A    between atoms: _632  and  _635
REMARK  251  A    between atoms: _635  and  _636
REMARK  252  A    between atoms: _639  and  _641
REMARK  253  A    between atoms: _641  and  _642
REMARK  254  A    between atoms: _644  and  _646
REMARK  255  A    between atoms: _646  and  _647
REMARK                            x       y       z     vdW  Elec       q    Type
REMARK                         _______ _______ _______ _____ _____    ______ ____
ROOT
ATOM      1  CB  GLN A   1     -17.127   7.463  -0.706  0.00  0.00    +0.035 C 
ENDROOT
BRANCH   1   2
ATOM      2  CA  GLN A   1     -17.936   7.205   0.559  0.00  0.00    +0.134 C 
BRANCH   2   3
ATOM      3  N   GLN A   1     -19.122   8.017   0.556  0.00  0.00    -0.239 NA
ATOM      4  H   GLN A   1     -19.038   9.030   0.334  0.00  0.00    +0.142 HD
ENDBRANCH   2   3
BRANCH   2   5
ATOM      5  C   GLN A   1     -17.071   7.494   1.772  0.00  0.00    +0.224 C 
ATOM      6  O   GLN A   1     -15.964   6.982   1.877  0.00  0.00    -0.287 OA
ENDBRANCH   2   5
ENDBRANCH   1   2
BRANCH   1   7
ATOM      7  CG  GLN A   1     -17.856   7.107  -2.004  0.00  0.00    +0.087 C 
BRANCH   7   8
ATOM      8  CD  GLN A   1     -17.856   5.618  -2.255  0.00  0.00    +0.219 C 
ATOM      9  OE1 GLN A   1     -18.705   4.886  -1.735  0.00  0.00    -0.275 OA
ATOM     10  NE2 GLN A   1     -16.899   5.153  -3.062  0.00  0.00    -0.329 N 
ATOM     11 HE21 GLN A   1     -16.847   4.136  -3.275  0.00  0.00    +0.145 HD
ATOM     12 HE22 GLN A   1     -16.205   5.807  -3.477  0.00  0.00    +0.145 HD
ENDBRANCH   7   8
ENDBRANCH   1   7
TORSDOF 5
REMARK  Name = ../refined-set-2016/3d91/3d91_pocket.pdb
REMARK  255 active torsions:
REMARK  status: ('A' for Active; 'I' for Inactive)
REMARK    1  A    between atoms: _1  and  _3
REMARK    2  A    between atoms: _3  and  _4
REMARK    3  A    between atoms: _3  and  _6
REMARK    4  A    between atoms: _6  and  _7
REMARK    5  A    between atoms: _12  and  _13
REMARK    6  A    between atoms: _15  and  _17
REMARK    7  A    between atoms: _17  and  _18
REMARK    8  A    between atoms: _17  and  _20
REMARK    9  A    between atoms: _20  and  _21
REMARK   10  A    between atoms: _24  and  _26
REMARK   11  A    between atoms: _26  and  _27
REMARK   12  A    between atoms: _26  and  _29
REMARK   13  A    between atoms: _29  and  _30
REMARK   14  A    between atoms: _33  and  _35
REMARK   15  A    between atoms: _35  and  _36
REMARK   16  A    between atoms: _35  and  _38
REMARK   17  A    between atoms: _38  and  _39
REMARK   18  A    between atoms: _39  and  _40
REMARK   19  A    between atoms: _45  and  _47
REMARK   20  A    between atoms: _47  and  _48
REMARK   21  A    between atoms: _47  and  _50
REMARK   22  A    between atoms: _50  and  _51
REMARK   23  A    between atoms: _56  and  _57
REMARK   24  A    between atoms: _59  and  _61
REMARK   25  A    between atoms: _61  and  _62
REMARK   26  A    between atoms: _61  and  _64
REMARK   27  A    between atoms: _67  and  _69
REMARK   28  A    between atoms: _69  and  _70
REMARK   29  A    between atoms: _69  and  _72
REMARK   30  A    between atoms: _75  and  _77
REMARK   31  A    between atoms: _77  and  _78
REMARK   32  A    between atoms: _77  and  _80
REMARK   33  A    between atoms: _80  and  _81
REMARK   34  A    between atoms: _87  and  _89
REMARK   35  A    between atoms: _89  and  _90
REMARK   36  A    between atoms: _89  and  _92
REMARK   37  A    between atoms: _92  and  _93
REMARK   38  A    between atoms: _96  and  _98
REMARK   39  A    between atoms: _98  and  _99
REMARK   40  A    between atoms: _98  and  _101
REMARK   41  A    between atoms: _101  and  _102
REMARK   42  A    between atoms: _105  and  _107
REMARK   43  A    between atoms: _107  and  _108
REMARK   44  A    between atoms: _110  and  _112
REMARK   45  A    between atoms: _112  and  _113
REMARK   46  A    between atoms: _112  and  _115
REMARK   47  A    between atoms: _115  and  _116
REMARK   48  A    between atoms: _118  and  _120
REMARK   49  A    between atoms: _120  and  _121
REMARK   50  A    between atoms: _120  and  _123
REMARK   51  A    between atoms: _123  and  _124
REMARK   52  A    between atoms: _126  and  _128
REMARK   53  A    between atoms: _128  and  _129
REMARK   54  A    between atoms: _128  and  _131
REMARK   55  A    between atoms: _131  and  _132
REMARK   56  A    between atoms: _142  and  _144
REMARK   57  A    between atoms: _144  and  _145
REMARK   58  A    between atoms: _144  and  _147
REMARK   59  A    between atoms: _147  and  _148
REMARK   60  A    between atoms: _153  and  _155
REMARK   61  A    between atoms: _155  and  _156
REMARK   62  A    between atoms: _155  and  _158
REMARK   63  A    between atoms: _158  and  _159
REMARK   64  A    between atoms: _162  and  _164
REMARK   65  A    between atoms: _164  and  _165
REMARK   66  A    between atoms: _164  and  _167
REMARK   67  A    between atoms: _167  and  _168
REMARK   68  A    between atoms: _168  and  _169
REMARK   69  A    between atoms: _169  and  _170
REMARK   70  A    between atoms: _179  and  _181
REMARK   71  A    between atoms: _181  and  _182
REMARK   72  A    between atoms: _181  and  _184
REMARK   73  A    between atoms: _184  and  _185
REMARK   74  A    between atoms: _190  and  _191
REMARK   75  A    between atoms: _193  and  _195
REMARK   76  A    between atoms: _195  and  _196
REMARK   77  A    between atoms: _195  and  _198
REMARK   78  A    between atoms: _198  and  _199
REMARK   79  A    between atoms: _201  and  _203
REMARK   80  A    between atoms: _203  and  _204
REMARK   81  A    between atoms: _203  and  _206
REMARK   82  A    between atoms: _206  and  _207
REMARK   83  A    between atoms: _210  and  _212
REMARK   84  A    between atoms: _212  and  _213
REMARK   85  A    between atoms: _215  and  _217
REMARK   86  A    between atoms: _217  and  _218
REMARK   87  A    between atoms: _217  and  _220
REMARK   88  A    between atoms: _220  and  _221
REMARK   89  A    between atoms: _224  and  _226
REMARK   90  A    between atoms: _226  and  _227
REMARK   91  A    between atoms: _226  and  _229
REMARK   92  A    between atoms: _232  and  _234
REMARK   93  A    between atoms: _234  and  _235
REMARK   94  A    between atoms: _238  and  _240
REMARK   95  A    between atoms: _240  and  _241
REMARK   96  A    between atoms: _240  and  _243
REMARK   97  A    between atoms: _243  and  _244
REMARK   98  A    between atoms: _248  and  _249
REMARK   99  A    between atoms: _254  and  _256
REMARK  100  A    between atoms: _256  and  _257
REMARK  101  A    between atoms: _256  and  _259
REMARK  102  A    between atoms: _259  and  _260
REMARK  103  A    between atoms: _266  and  _268
REMARK  104  A    between atoms: _268  and  _269
REMARK  105  A    between atoms: _268  and  _271
REMARK  106  A    between atoms: _271  and  _272
REMARK  107  A    between atoms: _272  and  _273
REMARK  108  A    between atoms: _275  and  _277
REMARK  109  A    between atoms: _277  and  _278
REMARK  110  A    between atoms: _277  and  _280
REMARK  111  A    between atoms: _280  and  _281
REMARK  112  A    between atoms: _284  and  _286
REMARK  113  A    between atoms: _286  and  _287
REMARK  114  A    between atoms: _290  and  _292
REMARK  115  A    between atoms: _292  and  _293
REMARK  116  A    between atoms: _292  and  _295
REMARK  117  A    between atoms: _295  and  _296
REMARK  118  A    between atoms: _296  and  _297
REMARK  119  A    between atoms: _300  and  _302
REMARK  120  A    between atoms: _302  and  _303
REMARK  121  A    between atoms: _302  and  _305
REMARK  122  A    between atoms: _305  and  _306
REMARK  123  A    between atoms: _312  and  _314
REMARK  124  A    between atoms: _314  and  _315
REMARK  125  A    between atoms: _317  and  _319
REMARK  126  A    between atoms: _319  and  _320
REMARK  127  A    between atoms: _319  and  _322
REMARK  128  A    between atoms: _325  and  _327
REMARK  129  A    between atoms: _327  and  _328
REMARK  130  A    between atoms: _327  and  _330
REMARK  131  A    between atoms: _333  and  _335
REMARK  132  A    between atoms: _335  and  _336
REMARK  133  A    between atoms: _335  and  _338
REMARK  134  A    between atoms: _338  and  _339
REMARK  135  A    between atoms: _339  and  _340
REMARK  136  A    between atoms: _342  and  _344
REMARK  137  A    between atoms: _344  and  _345
REMARK  138  A    between atoms: _344  and  _347
REMARK  139  A    between atoms: _347  and  _348
REMARK  140  A    between atoms: _348  and  _349
REMARK  141  A    between atoms: _354  and  _356
REMARK  142  A    between atoms: _356  and  _357
REMARK  143  A    between atoms: _356  and  _359
REMARK  144  A    between atoms: _362  and  _364
REMARK  145  A    between atoms: _364  and  _365
REMARK  146  A    between atoms: _364  and  _367
REMARK  147  A    between atoms: _367  and  _368
REMARK  148  A    between atoms: _378  and  _380
REMARK  149  A    between atoms: _380  and  _381
REMARK  150  A    between atoms: _380  and  _383
REMARK  151  A    between atoms: _383  and  _384
REMARK  152  A    between atoms: _387  and  _389
REMARK  153  A    between atoms: _389  and  _390
REMARK  154  A    between atoms: _389  and  _392
REMARK  155  A    between atoms: _395  and  _397
REMARK  156  A    between atoms: _397  and  _398
REMARK  157  A    between atoms: _397  and  _400
REMARK  158  A    between atoms: _400  and  _401
REMARK  159  A    between atoms: _404  and  _406
REMARK  160  A    between atoms: _406  and  _407
REMARK  161  A    between atoms: _406  and  _409
REMARK  162  A    between atoms: _409  and  _410
REMARK  163  A    between atoms: _413  and  _415
REMARK  164  A    between atoms: _415  and  _416
REMARK  165  A    between atoms: _418  and  _420
REMARK  166  A    between atoms: _420  and  _421
REMARK  167  A    between atoms: _424  and  _426
REMARK  168  A    between atoms: _426  and  _427
REMARK  169  A    between atoms: _426  and  _429
REMARK  170  A    between atoms: _429  and  _430
REMARK  171  A    between atoms: _432  and  _434
REMARK  172  A    between atoms: _434  and  _435
REMARK  173  A    between atoms: _434  and  _437
REMARK  174  A    between atoms: _437  and  _438
REMARK  175  A    between atoms: _443  and  _444
REMARK  176  A    between atoms: _446  and  _448
REMARK  177  A    between atoms: _448  and  _449
REMARK  178  A    between atoms: _448  and  _451
REMARK  179  A    between atoms: _451  and  _452
REMARK  180  A    between atoms: _455  and  _457
REMARK  181  A    between atoms: _457  and  _458
REMARK  182  A    between atoms: _457  and  _460
REMARK  183  A    between atoms: _460  and  _461
REMARK  184  A    between atoms: _463  and  _465
REMARK  185  A    between atoms: _465  and  _466
REMARK  186  A    between atoms: _468  and  _470
REMARK  187  A    between atoms: _470  and  _471
REMARK  188  A    between atoms: _470  and  _473
REMARK  189  A    between atoms: _473  and  _474
REMARK  190  A    between atoms: _480  and  _482
REMARK  191  A    between atoms: _482  and  _483
REMARK  192  A    between atoms: _482  and  _485
REMARK  193  A    between atoms: _485  and  _486
REMARK  194  A    between atoms: _489  and  _491
REMARK  195  A    between atoms: _491  and  _492
REMARK  196  A    between atoms: _491  and  _494
REMARK  197  A    between atoms: _494  and  _495
REMARK  198  A    between atoms: _501  and  _503
REMARK  199  A    between atoms: _503  and  _504
REMARK  200  A    between atoms: _503  and  _506
REMARK  201  A    between atoms: _506  and  _507
REMARK  202  A    between atoms: _510  and  _512
REMARK  203  A    between atoms: _512  and  _513
REMARK  204  A    between atoms: _512  and  _515
REMARK  205  A    between atoms: _515  and  _516
REMARK  206  A    between atoms: _519  and  _521
REMARK  207  A    between atoms: _521  and  _522
REMARK  208  A    between atoms: _525  and  _527
REMARK  209  A    between atoms: _527  and  _528
REMARK  210  A    between atoms: _527  and  _530
REMARK  211  A    between atoms: _530  and  _531
REMARK  212  A    between atoms: _534  and  _536
REMARK  213  A    between atoms: _536  and  _537
REMARK  214  A    between atoms: _536  and  _539
REMARK  215  A    between atoms: _539  and  _540
REMARK  216  A    between atoms: _545  and  _547
REMARK  217  A    between atoms: _547  and  _548
REMARK  218  A    between atoms: _551  and  _553
REMARK  219  A    between atoms: _553  and  _554
REMARK  220  A    between atoms: _553  and  _556
REMARK  221  A    between atoms: _556  and  _557
REMARK  222  A    between atoms: _557  and  _558
REMARK  223  A    between atoms: _560  and  _562
REMARK  224  A    between atoms: _562  and  _563
REMARK  225  A    between atoms: _562  and  _565
REMARK  226  A    between atoms: _565  and  _566
REMARK  227  A    between atoms: _569  and  _571
REMARK  228  A    between atoms: _571  and  _572
REMARK  229  A    between atoms: _571  and  _574
REMARK  230  A    between atoms: _574  and  _575
REMARK  231  A    between atoms: _579  and  _580
REMARK  232  A    between atoms: _585  and  _587
REMARK  233  A    between atoms: _587  and  _588
REMARK  234  A    between atoms: _587  and  _590
REMARK  235  A    between atoms: _590  and  _591
REMARK  236  A    between atoms: _594  and  _596
REMARK  237  A    between atoms: _596  and  _597
REMARK  238  A    between atoms: _599  and  _601
REMARK  239  A    between atoms: _601  and  _602
REMARK  240  A    between atoms: _601  and  _604
REMARK  241  A    between atoms: _604  and  _605
REMARK  242  A    between atoms: _608  and  _610
REMARK  243  A    between atoms: _610  and  _611
REMARK  244  A    between atoms: _610  and  _613
REMARK  245  A    between atoms: _613  and  _614
REMARK  246  A    between atoms: _624  and  _626
REMARK  247  A    between atoms: _626  and  _627
REMARK  248  A    between atoms: _630  and  _632
REMARK  249  A    between atoms: _632  and  _633
REMARK  250  A    between atoms: _632  and  _635
REMARK  251  A    between atoms: _635  and  _636
REMARK  252  A    between atoms: _639  and  _641
REMARK  253  A    between atoms: _641  and  _642
REMARK  254  A    between atoms: _644  and  _646
REMARK  255  A    between atoms: _646  and  _647
REMARK                            x       y       z     vdW  Elec       q    Type
REMARK                         _______ _______ _______ _____ _____    ______ ____
ROOT
ATOM      1  CA  TRP A   2     -17.462  10.372  -9.265  0.00  0.00    +0.141 C 
ENDROOT
BRANCH   1   3
ATOM      2  C   VAL A   1     -19.148   9.431  -7.807  0.00  0.00    +0.238 C 
ATOM      3  N   TRP A   2     -17.872   9.689  -8.038  0.00  0.00    -0.298 N 
ATOM      4  H   TRP A   2     -17.154   9.404  -7.342  0.00  0.00    +0.150 HD
ATOM      5  O   VAL A   1     -20.054   9.703  -8.603  0.00  0.00    -0.274 OA
BRANCH   2   6
ATOM      6  CA  VAL A   1     -19.455   8.722  -6.525  0.00  0.00    +0.145 C 
BRANCH   6   7
ATOM      7  CB  VAL A   1     -19.678   7.162  -6.834  0.00  0.00    +0.025 C 
ATOM      8  CG2 VAL A   1     -18.429   6.483  -6.927  0.00  0.00    +0.002 C 
ATOM      9  CG1 VAL A   1     -20.284   6.993  -8.172  0.00  0.00    +0.002 C 
ENDBRANCH   6   7
BRANCH   6  10
ATOM     10  N   VAL A   1     -20.657   9.339  -6.008  0.00  0.00    -0.238 NA
ATOM     11  H   VAL A   1     -21.268   9.894  -6.640  0.00  0.00    +0.142 HD
ENDBRANCH   6  10
ENDBRANCH   2   6
ENDBRANCH   1   3
BRANCH   1  12
ATOM     12  C   TRP A   2     -17.266   9.375 -10.374  0.00  0.00    +0.227 C 
ATOM     13  O   TRP A   2     -16.142   9.060 -10.709  0.00  0.00    -0.286 OA
ENDBRANCH   1  12
BRANCH   1  14
ATOM     14  CB  TRP A   2     -16.190  11.174  -9.023  0.00  0.00    +0.056 C 
BRANCH  14  15
ATOM     15  CG  TRP A   2     -16.411  12.453  -8.229  0.00  0.00    -0.002 A 
ATOM     16  CD1 TRP A   2     -15.958  12.731  -6.972  0.00  0.00    +0.068 A 
ATOM     17  NE1 TRP A   2     -16.386  13.997  -6.589  0.00  0.00    -0.352 N 
ATOM     18  HE1 TRP A   2     -16.183  14.453  -5.676  0.00  0.00    +0.166 HD
ATOM     19  CE2 TRP A   2     -17.119  14.548  -7.608  0.00  0.00    +0.056 A 
ATOM     20  CZ2 TRP A   2     -17.723  15.836  -7.712  0.00  0.00    +0.017 A 
ATOM     21  CH2 TRP A   2     -18.424  16.111  -8.857  0.00  0.00    +0.001 A 
ATOM     22  CZ3 TRP A   2     -18.496  15.185  -9.925  0.00  0.00    +0.000 A 
ATOM     23  CE3 TRP A   2     -17.861  13.911  -9.836  0.00  0.00    +0.001 A 
ATOM     24  CD2 TRP A   2     -17.167  13.592  -8.657  0.00  0.00    +0.013 A 
ENDBRANCH  14  15
ENDBRANCH   1  14
TORSDOF 7
REMARK  Name = ../refined-set-2016/3d91/3d91_pocket.pdb
REMARK  255 active torsions:
REMARK  status: ('A' for Active; 'I' for Inactive)
REMARK    1  A    between atoms: _1  and  _3
REMARK    2  A    between atoms: _3  and  _4
REMARK    3  A    between atoms: _3  and  _6
REMARK    4  A    between atoms: _6  and  _7
REMARK    5  A    between atoms: _12  and  _13
REMARK    6  A    between atoms: _15  and  _17
REMARK    7  A    between atoms: _17  and  _18
REMARK    8  A    between atoms: _17  and  _20
REMARK    9  A    between atoms: _20  and  _21
REMARK   10  A    between atoms: _24  and  _26
REMARK   11  A    between atoms: _26  and  _27
REMARK   12  A    between atoms: _26  and  _29
REMARK   13  A    between atoms: _29  and  _30
REMARK   14  A    between atoms: _33  and  _35
REMARK   15  A    between atoms: _35  and  _36
REMARK   16  A    between atoms: _35  and  _38
REMARK   17  A    between atoms: _38  and  _39
REMARK   18  A    between atoms: _39  and  _40
REMARK   19  A    between atoms: _45  and  _47
REMARK   20  A    between atoms: _47  and  _48
REMARK   21  A    between atoms: _47  and  _50
REMARK   22  A    between atoms: _50  and  _51
REMARK   23  A    between atoms: _56  and  _57
REMARK   24  A    between atoms: _59  and  _61
REMARK   25  A    between atoms: _61  and  _62
REMARK   26  A    between atoms: _61  and  _64
REMARK   27  A    between atoms: _67  and  _69
REMARK   28  A    between atoms: _69  and  _70
REMARK   29  A    between atoms: _69  and  _72
REMARK   30  A    between atoms: _75  and  _77
REMARK   31  A    between atoms: _77  and  _78
REMARK   32  A    between atoms: _77  and  _80
REMARK   33  A    between atoms: _80  and  _81
REMARK   34  A    between atoms: _87  and  _89
REMARK   35  A    between atoms: _89  and  _90
REMARK   36  A    between atoms: _89  and  _92
REMARK   37  A    between atoms: _92  and  _93
REMARK   38  A    between atoms: _96  and  _98
REMARK   39  A    between atoms: _98  and  _99
REMARK   40  A    between atoms: _98  and  _101
REMARK   41  A    between atoms: _101  and  _102
REMARK   42  A    between atoms: _105  and  _107
REMARK   43  A    between atoms: _107  and  _108
REMARK   44  A    between atoms: _110  and  _112
REMARK   45  A    between atoms: _112  and  _113
REMARK   46  A    between atoms: _112  and  _115
REMARK   47  A    between atoms: _115  and  _116
REMARK   48  A    between atoms: _118  and  _120
REMARK   49  A    between atoms: _120  and  _121
REMARK   50  A    between atoms: _120  and  _123
REMARK   51  A    between atoms: _123  and  _124
REMARK   52  A    between atoms: _126  and  _128
REMARK   53  A    between atoms: _128  and  _129
REMARK   54  A    between atoms: _128  and  _131
REMARK   55  A    between atoms: _131  and  _132
REMARK   56  A    between atoms: _142  and  _144
REMARK   57  A    between atoms: _144  and  _145
REMARK   58  A    between atoms: _144  and  _147
REMARK   59  A    between atoms: _147  and  _148
REMARK   60  A    between atoms: _153  and  _155
REMARK   61  A    between atoms: _155  and  _156
REMARK   62  A    between atoms: _155  and  _158
REMARK   63  A    between atoms: _158  and  _159
REMARK   64  A    between atoms: _162  and  _164
REMARK   65  A    between atoms: _164  and  _165
REMARK   66  A    between atoms: _164  and  _167
REMARK   67  A    between atoms: _167  and  _168
REMARK   68  A    between atoms: _168  and  _169
REMARK   69  A    between atoms: _169  and  _170
REMARK   70  A    between atoms: _179  and  _181
REMARK   71  A    between atoms: _181  and  _182
REMARK   72  A    between atoms: _181  and  _184
REMARK   73  A    between atoms: _184  and  _185
REMARK   74  A    between atoms: _190  and  _191
REMARK   75  A    between atoms: _193  and  _195
REMARK   76  A    between atoms: _195  and  _196
REMARK   77  A    between atoms: _195  and  _198
REMARK   78  A    between atoms: _198  and  _199
REMARK   79  A    between atoms: _201  and  _203
REMARK   80  A    between atoms: _203  and  _204
REMARK   81  A    between atoms: _203  and  _206
REMARK   82  A    between atoms: _206  and  _207
REMARK   83  A    between atoms: _210  and  _212
REMARK   84  A    between atoms: _212  and  _213
REMARK   85  A    between atoms: _215  and  _217
REMARK   86  A    between atoms: _217  and  _218
REMARK   87  A    between atoms: _217  and  _220
REMARK   88  A    between atoms: _220  and  _221
REMARK   89  A    between atoms: _224  and  _226
REMARK   90  A    between atoms: _226  and  _227
REMARK   91  A    between atoms: _226  and  _229
REMARK   92  A    between atoms: _232  and  _234
REMARK   93  A    between atoms: _234  and  _235
REMARK   94  A    between atoms: _238  and  _240
REMARK   95  A    between atoms: _240  and  _241
REMARK   96  A    between atoms: _240  and  _243
REMARK   97  A    between atoms: _243  and  _244
REMARK   98  A    between atoms: _248  and  _249
REMARK   99  A    between atoms: _254  and  _256
REMARK  100  A    between atoms: _256  and  _257
REMARK  101  A    between atoms: _256  and  _259
REMARK  102  A    between atoms: _259  and  _260
REMARK  103  A    between atoms: _266  and  _268
REMARK  104  A    between atoms: _268  and  _269
REMARK  105  A    between atoms: _268  and  _271
REMARK  106  A    between atoms: _271  and  _272
REMARK  107  A    between atoms: _272  and  _273
REMARK  108  A    between atoms: _275  and  _277
REMARK  109  A    between atoms: _277  and  _278
REMARK  110  A    between atoms: _277  and  _280
REMARK  111  A    between atoms: _280  and  _281
REMARK  112  A    between atoms: _284  and  _286
REMARK  113  A    between atoms: _286  and  _287
REMARK  114  A    between atoms: _290  and  _292
REMARK  115  A    between atoms: _292  and  _293
REMARK  116  A    between atoms: _292  and  _295
REMARK  117  A    between atoms: _295  and  _296
REMARK  118  A    between atoms: _296  and  _297
REMARK  119  A    between atoms: _300  and  _302
REMARK  120  A    between atoms: _302  and  _303
REMARK  121  A    between atoms: _302  and  _305
REMARK  122  A    between atoms: _305  and  _306
REMARK  123  A    between atoms: _312  and  _314
REMARK  124  A    between atoms: _314  and  _315
REMARK  125  A    between atoms: _317  and  _319
REMARK  126  A    between atoms: _319  and  _320
REMARK  127  A    between atoms: _319  and  _322
REMARK  128  A    between atoms: _325  and  _327
REMARK  129  A    between atoms: _327  and  _328
REMARK  130  A    between atoms: _327  and  _330
REMARK  131  A    between atoms: _333  and  _335
REMARK  132  A    between atoms: _335  and  _336
REMARK  133  A    between atoms: _335  and  _338
REMARK  134  A    between atoms: _338  and  _339
REMARK  135  A    between atoms: _339  and  _340
REMARK  136  A    between atoms: _342  and  _344
REMARK  137  A    between atoms: _344  and  _345
REMARK  138  A    between atoms: _344  and  _347
REMARK  139  A    between atoms: _347  and  _348
REMARK  140  A    between atoms: _348  and  _349
REMARK  141  A    between atoms: _354  and  _356
REMARK  142  A    between atoms: _356  and  _357
REMARK  143  A    between atoms: _356  and  _359
REMARK  144  A    between atoms: _362  and  _364
REMARK  145  A    between atoms: _364  and  _365
REMARK  146  A    between atoms: _364  and  _367
REMARK  147  A    between atoms: _367  and  _368
REMARK  148  A    between atoms: _378  and  _380
REMARK  149  A    between atoms: _380  and  _381
REMARK  150  A    between atoms: _380  and  _383
REMARK  151  A    between atoms: _383  and  _384
REMARK  152  A    between atoms: _387  and  _389
REMARK  153  A    between atoms: _389  and  _390
REMARK  154  A    between atoms: _389  and  _392
REMARK  155  A    between atoms: _395  and  _397
REMARK  156  A    between atoms: _397  and  _398
REMARK  157  A    between atoms: _397  and  _400
REMARK  158  A    between atoms: _400  and  _401
REMARK  159  A    between atoms: _404  and  _406
REMARK  160  A    between atoms: _406  and  _407
REMARK  161  A    between atoms: _406  and  _409
REMARK  162  A    between atoms: _409  and  _410
REMARK  163  A    between atoms: _413  and  _415
REMARK  164  A    between atoms: _415  and  _416
REMARK  165  A    between atoms: _418  and  _420
REMARK  166  A    between atoms: _420  and  _421
REMARK  167  A    between atoms: _424  and  _426
REMARK  168  A    between atoms: _426  and  _427
REMARK  169  A    between atoms: _426  and  _429
REMARK  170  A    between atoms: _429  and  _430
REMARK  171  A    between atoms: _432  and  _434
REMARK  172  A    between atoms: _434  and  _435
REMARK  173  A    between atoms: _434  and  _437
REMARK  174  A    between atoms: _437  and  _438
REMARK  175  A    between atoms: _443  and  _444
REMARK  176  A    between atoms: _446  and  _448
REMARK  177  A    between atoms: _448  and  _449
REMARK  178  A    between atoms: _448  and  _451
REMARK  179  A    between atoms: _451  and  _452
REMARK  180  A    between atoms: _455  and  _457
REMARK  181  A    between atoms: _457  and  _458
REMARK  182  A    between atoms: _457  and  _460
REMARK  183  A    between atoms: _460  and  _461
REMARK  184  A    between atoms: _463  and  _465
REMARK  185  A    between atoms: _465  and  _466
REMARK  186  A    between atoms: _468  and  _470
REMARK  187  A    between atoms: _470  and  _471
REMARK  188  A    between atoms: _470  and  _473
REMARK  189  A    between atoms: _473  and  _474
REMARK  190  A    between atoms: _480  and  _482
REMARK  191  A    between atoms: _482  and  _483
REMARK  192  A    between atoms: _482  and  _485
REMARK  193  A    between atoms: _485  and  _486
REMARK  194  A    between atoms: _489  and  _491
REMARK  195  A    between atoms: _491  and  _492
REMARK  196  A    between atoms: _491  and  _494
REMARK  197  A    between atoms: _494  and  _495
REMARK  198  A    between atoms: _501  and  _503
REMARK  199  A    between atoms: _503  and  _504
REMARK  200  A    between atoms: _503  and  _506
REMARK  201  A    between atoms: _506  and  _507
REMARK  202  A    between atoms: _510  and  _512
REMARK  203  A    between atoms: _512  and  _513
REMARK  204  A    between atoms: _512  and  _515
REMARK  205  A    between atoms: _515  and  _516
REMARK  206  A    between atoms: _519  and  _521
REMARK  207  A    between atoms: _521  and  _522
REMARK  208  A    between atoms: _525  and  _527
REMARK  209  A    between atoms: _527  and  _528
REMARK  210  A    between atoms: _527  and  _530
REMARK  211  A    between atoms: _530  and  _531
REMARK  212  A    between atoms: _534  and  _536
REMARK  213  A    between atoms: _536  and  _537
REMARK  214  A    between atoms: _536  and  _539
REMARK  215  A    between atoms: _539  and  _540
REMARK  216  A    between atoms: _545  and  _547
REMARK  217  A    between atoms: _547  and  _548
REMARK  218  A    between atoms: _551  and  _553
REMARK  219  A    between atoms: _553  and  _554
REMARK  220  A    between atoms: _553  and  _556
REMARK  221  A    between atoms: _556  and  _557
REMARK  222  A    between atoms: _557  and  _558
REMARK  223  A    between atoms: _560  and  _562
REMARK  224  A    between atoms: _562  and  _563
REMARK  225  A    between atoms: _562  and  _565
REMARK  226  A    between atoms: _565  and  _566
REMARK  227  A    between atoms: _569  and  _571
REMARK  228  A    between atoms: _571  and  _572
REMARK  229  A    between atoms: _571  and  _574
REMARK  230  A    between atoms: _574  and  _575
REMARK  231  A    between atoms: _579  and  _580
REMARK  232  A    between atoms: _585  and  _587
REMARK  233  A    between atoms: _587  and  _588
REMARK  234  A    between atoms: _587  and  _590
REMARK  235  A    between atoms: _590  and  _591
REMARK  236  A    between atoms: _594  and  _596
REMARK  237  A    between atoms: _596  and  _597
REMARK  238  A    between atoms: _599  and  _601
REMARK  239  A    between atoms: _601  and  _602
REMARK  240  A    between atoms: _601  and  _604
REMARK  241  A    between atoms: _604  and  _605
REMARK  242  A    between atoms: _608  and  _610
REMARK  243  A    between atoms: _610  and  _611
REMARK  244  A    between atoms: _610  and  _613
REMARK  245  A    between atoms: _613  and  _614
REMARK  246  A    between atoms: _624  and  _626
REMARK  247  A    between atoms: _626  and  _627
REMARK  248  A    between atoms: _630  and  _632
REMARK  249  A    between atoms: _632  and  _633
REMARK  250  A    between atoms: _632  and  _635
REMARK  251  A    between atoms: _635  and  _636
REMARK  252  A    between atoms: _639  and  _641
REMARK  253  A    between atoms: _641  and  _642
REMARK  254  A    between atoms: _644  and  _646
REMARK  255  A    between atoms: _646  and  _647
REMARK                            x       y       z     vdW  Elec       q    Type
REMARK                         _______ _______ _______ _____ _____    ______ ____
ROOT
ATOM      1  C   ALA A   6      -3.759   7.672 -10.338  0.00  0.00    +0.241 C 
ATOM      2  N   SER A   7      -2.547   7.144 -10.214  0.00  0.00    -0.295 N 
ATOM      3  H   SER A   7      -2.340   6.511  -9.415  0.00  0.00    +0.150 HD
ATOM      4  O   ALA A   6      -4.052   8.529 -11.184  0.00  0.00    -0.273 OA
ENDROOT
BRANCH   1   5
ATOM      5  CA  ALA A   6      -4.791   7.201  -9.342  0.00  0.00    +0.149 C 
ATOM      6  CB  ALA A   6      -5.795   6.289 -10.016  0.00  0.00    +0.031 C 
BRANCH   5   9
ATOM      7  C   GLY A   5      -5.331   8.701  -7.523  0.00  0.00    +0.243 C 
ATOM      8  O   GLY A   5      -4.800   7.938  -6.717  0.00  0.00    -0.273 OA
ATOM      9  N   ALA A   6      -5.423   8.413  -8.817  0.00  0.00    -0.297 N 
ATOM     10  H   ALA A   6      -5.943   9.048  -9.456  0.00  0.00    +0.150 HD
BRANCH   7  11
ATOM     11  CA  GLY A   5      -5.902  10.043  -7.052  0.00  0.00    +0.176 C 
BRANCH  11  13
ATOM     12  C   THR A   4      -6.419  11.507  -8.878  0.00  0.00    +0.243 C 
ATOM     13  N   GLY A   5      -6.840  10.638  -7.985  0.00  0.00    -0.295 N 
ATOM     14  H   GLY A   5      -7.846  10.377  -7.948  0.00  0.00    +0.150 HD
ATOM     15  O   THR A   4      -5.221  11.860  -8.994  0.00  0.00    -0.273 OA
BRANCH  12  16
ATOM     16  CA  THR A   4      -7.535  12.072  -9.728  0.00  0.00    +0.176 C 
BRANCH  16  18
ATOM     17  C   ASP A   3      -8.740  10.071 -10.263  0.00  0.00    +0.241 C 
ATOM     18  N   THR A   4      -8.683  11.197  -9.574  0.00  0.00    -0.295 N 
ATOM     19  H   THR A   4      -9.455  11.454  -8.926  0.00  0.00    +0.150 HD
ATOM     20  O   ASP A   3      -7.790   9.621 -10.905  0.00  0.00    -0.273 OA
BRANCH  17  21
ATOM     21  CA  ASP A   3     -10.041   9.326 -10.180  0.00  0.00    +0.160 C 
BRANCH  21  24
ATOM     22  C   VAL A   2     -11.950   9.846 -11.584  0.00  0.00    +0.241 C 
ATOM     23  O   VAL A   2     -12.436  10.590 -10.722  0.00  0.00    -0.273 OA
ATOM     24  N   ASP A   3     -10.744   9.301 -11.465  0.00  0.00    -0.297 N 
ATOM     25  H   ASP A   3     -10.296   8.854 -12.290  0.00  0.00    +0.150 HD
BRANCH  22  26
ATOM     26  CA  VAL A   2     -12.742   9.490 -12.856  0.00  0.00    +0.148 C 
BRANCH  26  28
ATOM     27  C   LEU A   1     -13.423   7.154 -12.713  0.00  0.00    +0.238 C 
ATOM     28  N   VAL A   2     -13.751   8.437 -12.579  0.00  0.00    -0.297 N 
ATOM     29  H   VAL A   2     -14.712   8.701 -12.281  0.00  0.00    +0.150 HD
ATOM     30  O   LEU A   1     -12.372   6.774 -13.212  0.00  0.00    -0.274 OA
BRANCH  27  31
ATOM     31  CA  LEU A   1     -14.424   6.141 -12.250  0.00  0.00    +0.145 C 
BRANCH  31  32
ATOM     32  N   LEU A   1     -14.695   5.283 -13.354  0.00  0.00    -0.238 NA
ATOM     33  H   LEU A   1     -14.102   4.441 -13.496  0.00  0.00    +0.142 HD
ENDBRANCH  31  32
BRANCH  31  34
ATOM     34  CB  LEU A   1     -13.797   5.332 -11.161  0.00  0.00    +0.026 C 
BRANCH  34  35
ATOM     35  CG  LEU A   1     -14.033   5.791  -9.749  0.00  0.00    +0.002 C 
ATOM     36  CD2 LEU A   1     -13.357   4.723  -8.931  0.00  0.00    +0.000 C 
ATOM     37  CD1 LEU A   1     -15.513   5.981  -9.402  0.00  0.00    +0.000 C 
ENDBRANCH  34  35
ENDBRANCH  31  34
ENDBRANCH  27  31
ENDBRANCH  26  28
BRANCH  26  38
ATOM     38  CB  VAL A   2     -13.347  10.745 -13.488  0.00  0.00    +0.027 C 
ATOM     39  CG2 VAL A   2     -12.250  11.543 -14.043  0.00  0.00    +0.002 C 
ATOM     40  CG1 VAL A   2     -14.223  10.356 -14.636  0.00  0.00    +0.002 C 
ENDBRANCH  26  38
ENDBRANCH  22  26
ENDBRANCH  21  24
BRANCH  21  41
ATOM     41  CB  ASP A   3      -9.764   7.905  -9.681  0.00  0.00    +0.143 C 
BRANCH  41  42
ATOM     42  CG  ASP A   3      -9.350   7.844  -8.218  0.00  0.00    +0.367 C 
ATOM     43  OD2 ASP A   3      -9.269   8.873  -7.475  0.00  0.00    -0.246 OA
ATOM     44  OD1 ASP A   3      -9.075   6.699  -7.806  0.00  0.00    -0.246 OA
ENDBRANCH  41  42
ENDBRANCH  21  41
ENDBRANCH  17  21
ENDBRANCH  16  18
BRANCH  16  45
ATOM     45  CB  THR A   4      -7.854  13.501  -9.253  0.00  0.00    +0.137 C 
ATOM     46  CG2 THR A   4      -9.026  14.081 -10.012  0.00  0.00    +0.034 C 
BRANCH  45  47
ATOM     47  OG1 THR A   4      -8.187  13.459  -7.873  0.00  0.00    -0.382 OA
ATOM     48  HG1 THR A   4      -7.421  13.097  -7.361  0.00  0.00    +0.210 HD
ENDBRANCH  45  47
ENDBRANCH  16  45
ENDBRANCH  12  16
ENDBRANCH  11  13
ENDBRANCH   7  11
ENDBRANCH   5   9
ENDBRANCH   1   5
BRANCH   2  49
ATOM     49  CA  SER A   7      -1.508   7.442 -11.182  0.00  0.00    +0.178 C 
BRANCH  49  50
ATOM     50  C   SER A   7      -1.835   6.914 -12.577  0.00  0.00    +0.243 C 
ATOM     51  N   TYR A   8      -2.592   5.820 -12.668  0.00  0.00    -0.297 N 
ATOM     52  H   TYR A   8      -3.009   5.392 -11.816  0.00  0.00    +0.150 HD
ATOM     53  O   SER A   7      -1.371   7.467 -13.581  0.00  0.00    -0.273 OA
BRANCH  51  54
ATOM     54  CA  TYR A   8      -2.831   5.220 -14.014  0.00  0.00    +0.153 C 
BRANCH  54  55
ATOM     55  C   TYR A   8      -4.299   5.035 -14.381  0.00  0.00    +0.241 C 
ATOM     56  O   TYR A   8      -5.206   5.243 -13.550  0.00  0.00    -0.273 OA
ATOM     57  N   ILE A   9      -4.509   4.631 -15.634  0.00  0.00    -0.297 N 
ATOM     58  H   ILE A   9      -3.767   4.801 -16.343  0.00  0.00    +0.150 HD
BRANCH  57  59
ATOM     59  CA  ILE A   9      -5.739   3.959 -16.055  0.00  0.00    +0.149 C 
BRANCH  59  60
ATOM     60  C   ILE A   9      -5.779   2.509 -15.557  0.00  0.00    +0.241 C 
ATOM     61  N   SER A  10      -6.864   2.129 -14.899  0.00  0.00    -0.295 N 
ATOM     62  H   SER A  10      -7.602   2.825 -14.667  0.00  0.00    +0.150 HD
ATOM     63  O   ILE A   9      -4.836   1.756 -15.741  0.00  0.00    -0.273 OA
BRANCH  61  64
ATOM     64  CA  SER A  10      -7.024   0.741 -14.501  0.00  0.00    +0.178 C 
BRANCH  64  65
ATOM     65  C   SER A  10      -8.279   0.158 -15.106  0.00  0.00    +0.243 C 
ATOM     66  N   GLY A  11      -8.285  -1.161 -15.249  0.00  0.00    -0.296 N 
ATOM     67  H   GLY A  11      -7.390  -1.677 -15.132  0.00  0.00    +0.150 HD
ATOM     68  O   SER A  10      -9.210   0.881 -15.431  0.00  0.00    -0.273 OA
BRANCH  66  69
ATOM     69  CA  GLY A  11      -9.490  -1.919 -15.563  0.00  0.00    +0.163 C 
BRANCH  69  70
ATOM     70  C   GLY A  11      -9.480  -3.137 -14.652  0.00  0.00    +0.229 C 
ATOM     71  O   GLY A  11      -8.518  -3.351 -13.921  0.00  0.00    -0.286 OA
ENDBRANCH  69  70
ENDBRANCH  66  69
ENDBRANCH  64  65
BRANCH  64  72
ATOM     72  CB  SER A  10      -7.035   0.575 -12.968  0.00  0.00    +0.166 C 
BRANCH  72  73
ATOM     73  OG  SER A  10      -8.290   0.886 -12.389  0.00  0.00    -0.380 OA
ATOM     74  H   SER A  10      -8.239   0.763 -11.408  0.00  0.00    +0.211 HD
ENDBRANCH  72  73
ENDBRANCH  64  72
ENDBRANCH  61  64
ENDBRANCH  59  60
BRANCH  59  75
ATOM     75  CB  ILE A   9      -5.901   4.010 -17.569  0.00  0.00    +0.027 C 
ATOM     76  CG2 ILE A   9      -6.857   2.870 -18.075  0.00  0.00    +0.002 C 
BRANCH  75  77
ATOM     77  CG1 ILE A   9      -6.425   5.397 -17.947  0.00  0.00    +0.002 C 
ATOM     78  CD1 ILE A   9      -6.092   5.833 -19.304  0.00  0.00    +0.000 C 
ENDBRANCH  75  77
ENDBRANCH  59  75
ENDBRANCH  57  59
ENDBRANCH  54  55
BRANCH  54  79
ATOM     79  CB  TYR A   8      -2.128   3.857 -14.191  0.00  0.00    +0.055 C 
BRANCH  79  80
ATOM     80  CG  TYR A   8      -0.616   3.746 -14.108  0.00  0.00    -0.020 A 
ATOM     81  CD2 TYR A   8      -0.052   2.484 -14.056  0.00  0.00    -0.001 A 
ATOM     82  CE2 TYR A   8       1.290   2.268 -13.990  0.00  0.00    +0.036 A 
ATOM     83  CZ  TYR A   8       2.161   3.299 -13.958  0.00  0.00    +0.134 A 
ATOM     84  CE1 TYR A   8       1.679   4.657 -14.010  0.00  0.00    +0.036 A 
ATOM     85  CD1 TYR A   8       0.263   4.861 -14.090  0.00  0.00    -0.001 A 
BRANCH  83  86
ATOM     86  OH  TYR A   8       3.481   2.915 -13.864  0.00  0.00    -0.506 OA
ATOM     87  HH  TYR A   8       3.535   1.927 -13.846  0.00  0.00    +0.292 HD
ENDBRANCH  83  86
ENDBRANCH  79  80
ENDBRANCH  54  79
ENDBRANCH  51  54
ENDBRANCH  49  50
BRANCH  49  88
ATOM     88  CB  SER A   7      -0.179   6.864 -10.737  0.00  0.00    +0.166 C 
BRANCH  88  89
ATOM     89  OG  SER A   7      -0.002   6.948  -9.341  0.00  0.00    -0.380 OA
ATOM     90  H   SER A   7      -0.034   7.897  -9.062  0.00  0.00    +0.211 HD
ENDBRANCH  88  89
ENDBRANCH  49  88
ENDBRANCH   2  49
TORSDOF 38
REMARK  Name = ../refined-set-2016/3d91/3d91_pocket.pdb
REMARK  255 active torsions:
REMARK  status: ('A' for Active; 'I' for Inactive)
REMARK    1  A    between atoms: _1  and  _3
REMARK    2  A    between atoms: _3  and  _4
REMARK    3  A    between atoms: _3  and  _6
REMARK    4  A    between atoms: _6  and  _7
REMARK    5  A    between atoms: _12  and  _13
REMARK    6  A    between atoms: _15  and  _17
REMARK    7  A    between atoms: _17  and  _18
REMARK    8  A    between atoms: _17  and  _20
REMARK    9  A    between atoms: _20  and  _21
REMARK   10  A    between atoms: _24  and  _26
REMARK   11  A    between atoms: _26  and  _27
REMARK   12  A    between atoms: _26  and  _29
REMARK   13  A    between atoms: _29  and  _30
REMARK   14  A    between atoms: _33  and  _35
REMARK   15  A    between atoms: _35  and  _36
REMARK   16  A    between atoms: _35  and  _38
REMARK   17  A    between atoms: _38  and  _39
REMARK   18  A    between atoms: _39  and  _40
REMARK   19  A    between atoms: _45  and  _47
REMARK   20  A    between atoms: _47  and  _48
REMARK   21  A    between atoms: _47  and  _50
REMARK   22  A    between atoms: _50  and  _51
REMARK   23  A    between atoms: _56  and  _57
REMARK   24  A    between atoms: _59  and  _61
REMARK   25  A    between atoms: _61  and  _62
REMARK   26  A    between atoms: _61  and  _64
REMARK   27  A    between atoms: _67  and  _69
REMARK   28  A    between atoms: _69  and  _70
REMARK   29  A    between atoms: _69  and  _72
REMARK   30  A    between atoms: _75  and  _77
REMARK   31  A    between atoms: _77  and  _78
REMARK   32  A    between atoms: _77  and  _80
REMARK   33  A    between atoms: _80  and  _81
REMARK   34  A    between atoms: _87  and  _89
REMARK   35  A    between atoms: _89  and  _90
REMARK   36  A    between atoms: _89  and  _92
REMARK   37  A    between atoms: _92  and  _93
REMARK   38  A    between atoms: _96  and  _98
REMARK   39  A    between atoms: _98  and  _99
REMARK   40  A    between atoms: _98  and  _101
REMARK   41  A    between atoms: _101  and  _102
REMARK   42  A    between atoms: _105  and  _107
REMARK   43  A    between atoms: _107  and  _108
REMARK   44  A    between atoms: _110  and  _112
REMARK   45  A    between atoms: _112  and  _113
REMARK   46  A    between atoms: _112  and  _115
REMARK   47  A    between atoms: _115  and  _116
REMARK   48  A    between atoms: _118  and  _120
REMARK   49  A    between atoms: _120  and  _121
REMARK   50  A    between atoms: _120  and  _123
REMARK   51  A    between atoms: _123  and  _124
REMARK   52  A    between atoms: _126  and  _128
REMARK   53  A    between atoms: _128  and  _129
REMARK   54  A    between atoms: _128  and  _131
REMARK   55  A    between atoms: _131  and  _132
REMARK   56  A    between atoms: _142  and  _144
REMARK   57  A    between atoms: _144  and  _145
REMARK   58  A    between atoms: _144  and  _147
REMARK   59  A    between atoms: _147  and  _148
REMARK   60  A    between atoms: _153  and  _155
REMARK   61  A    between atoms: _155  and  _156
REMARK   62  A    between atoms: _155  and  _158
REMARK   63  A    between atoms: _158  and  _159
REMARK   64  A    between atoms: _162  and  _164
REMARK   65  A    between atoms: _164  and  _165
REMARK   66  A    between atoms: _164  and  _167
REMARK   67  A    between atoms: _167  and  _168
REMARK   68  A    between atoms: _168  and  _169
REMARK   69  A    between atoms: _169  and  _170
REMARK   70  A    between atoms: _179  and  _181
REMARK   71  A    between atoms: _181  and  _182
REMARK   72  A    between atoms: _181  and  _184
REMARK   73  A    between atoms: _184  and  _185
REMARK   74  A    between atoms: _190  and  _191
REMARK   75  A    between atoms: _193  and  _195
REMARK   76  A    between atoms: _195  and  _196
REMARK   77  A    between atoms: _195  and  _198
REMARK   78  A    between atoms: _198  and  _199
REMARK   79  A    between atoms: _201  and  _203
REMARK   80  A    between atoms: _203  and  _204
REMARK   81  A    between atoms: _203  and  _206
REMARK   82  A    between atoms: _206  and  _207
REMARK   83  A    between atoms: _210  and  _212
REMARK   84  A    between atoms: _212  and  _213
REMARK   85  A    between atoms: _215  and  _217
REMARK   86  A    between atoms: _217  and  _218
REMARK   87  A    between atoms: _217  and  _220
REMARK   88  A    between atoms: _220  and  _221
REMARK   89  A    between atoms: _224  and  _226
REMARK   90  A    between atoms: _226  and  _227
REMARK   91  A    between atoms: _226  and  _229
REMARK   92  A    between atoms: _232  and  _234
REMARK   93  A    between atoms: _234  and  _235
REMARK   94  A    between atoms: _238  and  _240
REMARK   95  A    between atoms: _240  and  _241
REMARK   96  A    between atoms: _240  and  _243
REMARK   97  A    between atoms: _243  and  _244
REMARK   98  A    between atoms: _248  and  _249
REMARK   99  A    between atoms: _254  and  _256
REMARK  100  A    between atoms: _256  and  _257
REMARK  101  A    between atoms: _256  and  _259
REMARK  102  A    between atoms: _259  and  _260
REMARK  103  A    between atoms: _266  and  _268
REMARK  104  A    between atoms: _268  and  _269
REMARK  105  A    between atoms: _268  and  _271
REMARK  106  A    between atoms: _271  and  _272
REMARK  107  A    between atoms: _272  and  _273
REMARK  108  A    between atoms: _275  and  _277
REMARK  109  A    between atoms: _277  and  _278
REMARK  110  A    between atoms: _277  and  _280
REMARK  111  A    between atoms: _280  and  _281
REMARK  112  A    between atoms: _284  and  _286
REMARK  113  A    between atoms: _286  and  _287
REMARK  114  A    between atoms: _290  and  _292
REMARK  115  A    between atoms: _292  and  _293
REMARK  116  A    between atoms: _292  and  _295
REMARK  117  A    between atoms: _295  and  _296
REMARK  118  A    between atoms: _296  and  _297
REMARK  119  A    between atoms: _300  and  _302
REMARK  120  A    between atoms: _302  and  _303
REMARK  121  A    between atoms: _302  and  _305
REMARK  122  A    between atoms: _305  and  _306
REMARK  123  A    between atoms: _312  and  _314
REMARK  124  A    between atoms: _314  and  _315
REMARK  125  A    between atoms: _317  and  _319
REMARK  126  A    between atoms: _319  and  _320
REMARK  127  A    between atoms: _319  and  _322
REMARK  128  A    between atoms: _325  and  _327
REMARK  129  A    between atoms: _327  and  _328
REMARK  130  A    between atoms: _327  and  _330
REMARK  131  A    between atoms: _333  and  _335
REMARK  132  A    between atoms: _335  and  _336
REMARK  133  A    between atoms: _335  and  _338
REMARK  134  A    between atoms: _338  and  _339
REMARK  135  A    between atoms: _339  and  _340
REMARK  136  A    between atoms: _342  and  _344
REMARK  137  A    between atoms: _344  and  _345
REMARK  138  A    between atoms: _344  and  _347
REMARK  139  A    between atoms: _347  and  _348
REMARK  140  A    between atoms: _348  and  _349
REMARK  141  A    between atoms: _354  and  _356
REMARK  142  A    between atoms: _356  and  _357
REMARK  143  A    between atoms: _356  and  _359
REMARK  144  A    between atoms: _362  and  _364
REMARK  145  A    between atoms: _364  and  _365
REMARK  146  A    between atoms: _364  and  _367
REMARK  147  A    between atoms: _367  and  _368
REMARK  148  A    between atoms: _378  and  _380
REMARK  149  A    between atoms: _380  and  _381
REMARK  150  A    between atoms: _380  and  _383
REMARK  151  A    between atoms: _383  and  _384
REMARK  152  A    between atoms: _387  and  _389
REMARK  153  A    between atoms: _389  and  _390
REMARK  154  A    between atoms: _389  and  _392
REMARK  155  A    between atoms: _395  and  _397
REMARK  156  A    between atoms: _397  and  _398
REMARK  157  A    between atoms: _397  and  _400
REMARK  158  A    between atoms: _400  and  _401
REMARK  159  A    between atoms: _404  and  _406
REMARK  160  A    between atoms: _406  and  _407
REMARK  161  A    between atoms: _406  and  _409
REMARK  162  A    between atoms: _409  and  _410
REMARK  163  A    between atoms: _413  and  _415
REMARK  164  A    between atoms: _415  and  _416
REMARK  165  A    between atoms: _418  and  _420
REMARK  166  A    between atoms: _420  and  _421
REMARK  167  A    between atoms: _424  and  _426
REMARK  168  A    between atoms: _426  and  _427
REMARK  169  A    between atoms: _426  and  _429
REMARK  170  A    between atoms: _429  and  _430
REMARK  171  A    between atoms: _432  and  _434
REMARK  172  A    between atoms: _434  and  _435
REMARK  173  A    between atoms: _434  and  _437
REMARK  174  A    between atoms: _437  and  _438
REMARK  175  A    between atoms: _443  and  _444
REMARK  176  A    between atoms: _446  and  _448
REMARK  177  A    between atoms: _448  and  _449
REMARK  178  A    between atoms: _448  and  _451
REMARK  179  A    between atoms: _451  and  _452
REMARK  180  A    between atoms: _455  and  _457
REMARK  181  A    between atoms: _457  and  _458
REMARK  182  A    between atoms: _457  and  _460
REMARK  183  A    between atoms: _460  and  _461
REMARK  184  A    between atoms: _463  and  _465
REMARK  185  A    between atoms: _465  and  _466
REMARK  186  A    between atoms: _468  and  _470
REMARK  187  A    between atoms: _470  and  _471
REMARK  188  A    between atoms: _470  and  _473
REMARK  189  A    between atoms: _473  and  _474
REMARK  190  A    between atoms: _480  and  _482
REMARK  191  A    between atoms: _482  and  _483
REMARK  192  A    between atoms: _482  and  _485
REMARK  193  A    between atoms: _485  and  _486
REMARK  194  A    between atoms: _489  and  _491
REMARK  195  A    between atoms: _491  and  _492
REMARK  196  A    between atoms: _491  and  _494
REMARK  197  A    between atoms: _494  and  _495
REMARK  198  A    between atoms: _501  and  _503
REMARK  199  A    between atoms: _503  and  _504
REMARK  200  A    between atoms: _503  and  _506
REMARK  201  A    between atoms: _506  and  _507
REMARK  202  A    between atoms: _510  and  _512
REMARK  203  A    between atoms: _512  and  _513
REMARK  204  A    between atoms: _512  and  _515
REMARK  205  A    between atoms: _515  and  _516
REMARK  206  A    between atoms: _519  and  _521
REMARK  207  A    between atoms: _521  and  _522
REMARK  208  A    between atoms: _525  and  _527
REMARK  209  A    between atoms: _527  and  _528
REMARK  210  A    between atoms: _527  and  _530
REMARK  211  A    between atoms: _530  and  _531
REMARK  212  A    between atoms: _534  and  _536
REMARK  213  A    between atoms: _536  and  _537
REMARK  214  A    between atoms: _536  and  _539
REMARK  215  A    between atoms: _539  and  _540
REMARK  216  A    between atoms: _545  and  _547
REMARK  217  A    between atoms: _547  and  _548
REMARK  218  A    between atoms: _551  and  _553
REMARK  219  A    between atoms: _553  and  _554
REMARK  220  A    between atoms: _553  and  _556
REMARK  221  A    between atoms: _556  and  _557
REMARK  222  A    between atoms: _557  and  _558
REMARK  223  A    between atoms: _560  and  _562
REMARK  224  A    between atoms: _562  and  _563
REMARK  225  A    between atoms: _562  and  _565
REMARK  226  A    between atoms: _565  and  _566
REMARK  227  A    between atoms: _569  and  _571
REMARK  228  A    between atoms: _571  and  _572
REMARK  229  A    between atoms: _571  and  _574
REMARK  230  A    between atoms: _574  and  _575
REMARK  231  A    between atoms: _579  and  _580
REMARK  232  A    between atoms: _585  and  _587
REMARK  233  A    between atoms: _587  and  _588
REMARK  234  A    between atoms: _587  and  _590
REMARK  235  A    between atoms: _590  and  _591
REMARK  236  A    between atoms: _594  and  _596
REMARK  237  A    between atoms: _596  and  _597
REMARK  238  A    between atoms: _599  and  _601
REMARK  239  A    between atoms: _601  and  _602
REMARK  240  A    between atoms: _601  and  _604
REMARK  241  A    between atoms: _604  and  _605
REMARK  242  A    between atoms: _608  and  _610
REMARK  243  A    between atoms: _610  and  _611
REMARK  244  A    between atoms: _610  and  _613
REMARK  245  A    between atoms: _613  and  _614
REMARK  246  A    between atoms: _624  and  _626
REMARK  247  A    between atoms: _626  and  _627
REMARK  248  A    between atoms: _630  and  _632
REMARK  249  A    between atoms: _632  and  _633
REMARK  250  A    between atoms: _632  and  _635
REMARK  251  A    between atoms: _635  and  _636
REMARK  252  A    between atoms: _639  and  _641
REMARK  253  A    between atoms: _641  and  _642
REMARK  254  A    between atoms: _644  and  _646
REMARK  255  A    between atoms: _646  and  _647
REMARK                            x       y       z     vdW  Elec       q    Type
REMARK                         _______ _______ _______ _____ _____    ______ ____
ROOT
ATOM      1  C   PHE A   1       2.409  -5.244 -12.455  0.00  0.00    +0.239 C 
ATOM      2  O   PHE A   1       1.246  -4.985 -12.779  0.00  0.00    -0.274 OA
ATOM      3  N   ASP A   2       3.471  -4.877 -13.166  0.00  0.00    -0.298 N 
ATOM      4  H   ASP A   2       4.411  -5.230 -12.896  0.00  0.00    +0.150 HD
ENDROOT
BRANCH   1   5
ATOM      5  CA  PHE A   1       2.681  -6.021 -11.183  0.00  0.00    +0.149 C 
BRANCH   5   6
ATOM      6  N   PHE A   1       3.748  -7.006 -11.349  0.00  0.00    -0.238 NA
ATOM      7  H   PHE A   1       4.730  -6.716 -11.166  0.00  0.00    +0.142 HD
ENDBRANCH   5   6
BRANCH   5   8
ATOM      8  CB  PHE A   1       3.005  -5.044 -10.055  0.00  0.00    +0.053 C 
BRANCH   8   9
ATOM      9  CG  PHE A   1       3.542  -5.703  -8.847  0.00  0.00    -0.020 A 
ATOM     10  CD2 PHE A   1       2.785  -6.664  -8.175  0.00  0.00    -0.004 A 
ATOM     11  CE2 PHE A   1       3.289  -7.302  -7.053  0.00  0.00    -0.000 A 
ATOM     12  CZ  PHE A   1       4.572  -6.977  -6.589  0.00  0.00    -0.000 A 
ATOM     13  CE1 PHE A   1       5.336  -6.028  -7.261  0.00  0.00    -0.000 A 
ATOM     14  CD1 PHE A   1       4.811  -5.396  -8.389  0.00  0.00    -0.004 A 
ENDBRANCH   8   9
ENDBRANCH   5   8
ENDBRANCH   1   5
BRANCH   3  15
ATOM     15  CA  ASP A   2       3.344  -3.991 -14.315  0.00  0.00    +0.148 C 
BRANCH  15  16
ATOM     16  C   ASP A   2       3.179  -4.774 -15.599  0.00  0.00    +0.227 C 
ATOM     17  O   ASP A   2       3.371  -5.983 -15.612  0.00  0.00    -0.286 OA
ENDBRANCH  15  16
BRANCH  15  18
ATOM     18  CB  ASP A   2       4.542  -3.016 -14.414  0.00  0.00    +0.142 C 
BRANCH  18  19
ATOM     19  CG  ASP A   2       5.883  -3.734 -14.557  0.00  0.00    +0.367 C 
ATOM     20  OD2 ASP A   2       6.935  -3.061 -14.576  0.00  0.00    -0.246 OA
ATOM     21  OD1 ASP A   2       5.892  -4.980 -14.655  0.00  0.00    -0.246 OA
ENDBRANCH  18  19
ENDBRANCH  15  18
ENDBRANCH   3  15
TORSDOF 8
REMARK  Name = ../refined-set-2016/3d91/3d91_pocket.pdb
REMARK  255 active torsions:
REMARK  status: ('A' for Active; 'I' for Inactive)
REMARK    1  A    between atoms: _1  and  _3
REMARK    2  A    between atoms: _3  and  _4
REMARK    3  A    between atoms: _3  and  _6
REMARK    4  A    between atoms: _6  and  _7
REMARK    5  A    between atoms: _12  and  _13
REMARK    6  A    between atoms: _15  and  _17
REMARK    7  A    between atoms: _17  and  _18
REMARK    8  A    between atoms: _17  and  _20
REMARK    9  A    between atoms: _20  and  _21
REMARK   10  A    between atoms: _24  and  _26
REMARK   11  A    between atoms: _26  and  _27
REMARK   12  A    between atoms: _26  and  _29
REMARK   13  A    between atoms: _29  and  _30
REMARK   14  A    between atoms: _33  and  _35
REMARK   15  A    between atoms: _35  and  _36
REMARK   16  A    between atoms: _35  and  _38
REMARK   17  A    between atoms: _38  and  _39
REMARK   18  A    between atoms: _39  and  _40
REMARK   19  A    between atoms: _45  and  _47
REMARK   20  A    between atoms: _47  and  _48
REMARK   21  A    between atoms: _47  and  _50
REMARK   22  A    between atoms: _50  and  _51
REMARK   23  A    between atoms: _56  and  _57
REMARK   24  A    between atoms: _59  and  _61
REMARK   25  A    between atoms: _61  and  _62
REMARK   26  A    between atoms: _61  and  _64
REMARK   27  A    between atoms: _67  and  _69
REMARK   28  A    between atoms: _69  and  _70
REMARK   29  A    between atoms: _69  and  _72
REMARK   30  A    between atoms: _75  and  _77
REMARK   31  A    between atoms: _77  and  _78
REMARK   32  A    between atoms: _77  and  _80
REMARK   33  A    between atoms: _80  and  _81
REMARK   34  A    between atoms: _87  and  _89
REMARK   35  A    between atoms: _89  and  _90
REMARK   36  A    between atoms: _89  and  _92
REMARK   37  A    between atoms: _92  and  _93
REMARK   38  A    between atoms: _96  and  _98
REMARK   39  A    between atoms: _98  and  _99
REMARK   40  A    between atoms: _98  and  _101
REMARK   41  A    between atoms: _101  and  _102
REMARK   42  A    between atoms: _105  and  _107
REMARK   43  A    between atoms: _107  and  _108
REMARK   44  A    between atoms: _110  and  _112
REMARK   45  A    between atoms: _112  and  _113
REMARK   46  A    between atoms: _112  and  _115
REMARK   47  A    between atoms: _115  and  _116
REMARK   48  A    between atoms: _118  and  _120
REMARK   49  A    between atoms: _120  and  _121
REMARK   50  A    between atoms: _120  and  _123
REMARK   51  A    between atoms: _123  and  _124
REMARK   52  A    between atoms: _126  and  _128
REMARK   53  A    between atoms: _128  and  _129
REMARK   54  A    between atoms: _128  and  _131
REMARK   55  A    between atoms: _131  and  _132
REMARK   56  A    between atoms: _142  and  _144
REMARK   57  A    between atoms: _144  and  _145
REMARK   58  A    between atoms: _144  and  _147
REMARK   59  A    between atoms: _147  and  _148
REMARK   60  A    between atoms: _153  and  _155
REMARK   61  A    between atoms: _155  and  _156
REMARK   62  A    between atoms: _155  and  _158
REMARK   63  A    between atoms: _158  and  _159
REMARK   64  A    between atoms: _162  and  _164
REMARK   65  A    between atoms: _164  and  _165
REMARK   66  A    between atoms: _164  and  _167
REMARK   67  A    between atoms: _167  and  _168
REMARK   68  A    between atoms: _168  and  _169
REMARK   69  A    between atoms: _169  and  _170
REMARK   70  A    between atoms: _179  and  _181
REMARK   71  A    between atoms: _181  and  _182
REMARK   72  A    between atoms: _181  and  _184
REMARK   73  A    between atoms: _184  and  _185
REMARK   74  A    between atoms: _190  and  _191
REMARK   75  A    between atoms: _193  and  _195
REMARK   76  A    between atoms: _195  and  _196
REMARK   77  A    between atoms: _195  and  _198
REMARK   78  A    between atoms: _198  and  _199
REMARK   79  A    between atoms: _201  and  _203
REMARK   80  A    between atoms: _203  and  _204
REMARK   81  A    between atoms: _203  and  _206
REMARK   82  A    between atoms: _206  and  _207
REMARK   83  A    between atoms: _210  and  _212
REMARK   84  A    between atoms: _212  and  _213
REMARK   85  A    between atoms: _215  and  _217
REMARK   86  A    between atoms: _217  and  _218
REMARK   87  A    between atoms: _217  and  _220
REMARK   88  A    between atoms: _220  and  _221
REMARK   89  A    between atoms: _224  and  _226
REMARK   90  A    between atoms: _226  and  _227
REMARK   91  A    between atoms: _226  and  _229
REMARK   92  A    between atoms: _232  and  _234
REMARK   93  A    between atoms: _234  and  _235
REMARK   94  A    between atoms: _238  and  _240
REMARK   95  A    between atoms: _240  and  _241
REMARK   96  A    between atoms: _240  and  _243
REMARK   97  A    between atoms: _243  and  _244
REMARK   98  A    between atoms: _248  and  _249
REMARK   99  A    between atoms: _254  and  _256
REMARK  100  A    between atoms: _256  and  _257
REMARK  101  A    between atoms: _256  and  _259
REMARK  102  A    between atoms: _259  and  _260
REMARK  103  A    between atoms: _266  and  _268
REMARK  104  A    between atoms: _268  and  _269
REMARK  105  A    between atoms: _268  and  _271
REMARK  106  A    between atoms: _271  and  _272
REMARK  107  A    between atoms: _272  and  _273
REMARK  108  A    between atoms: _275  and  _277
REMARK  109  A    between atoms: _277  and  _278
REMARK  110  A    between atoms: _277  and  _280
REMARK  111  A    between atoms: _280  and  _281
REMARK  112  A    between atoms: _284  and  _286
REMARK  113  A    between atoms: _286  and  _287
REMARK  114  A    between atoms: _290  and  _292
REMARK  115  A    between atoms: _292  and  _293
REMARK  116  A    between atoms: _292  and  _295
REMARK  117  A    between atoms: _295  and  _296
REMARK  118  A    between atoms: _296  and  _297
REMARK  119  A    between atoms: _300  and  _302
REMARK  120  A    between atoms: _302  and  _303
REMARK  121  A    between atoms: _302  and  _305
REMARK  122  A    between atoms: _305  and  _306
REMARK  123  A    between atoms: _312  and  _314
REMARK  124  A    between atoms: _314  and  _315
REMARK  125  A    between atoms: _317  and  _319
REMARK  126  A    between atoms: _319  and  _320
REMARK  127  A    between atoms: _319  and  _322
REMARK  128  A    between atoms: _325  and  _327
REMARK  129  A    between atoms: _327  and  _328
REMARK  130  A    between atoms: _327  and  _330
REMARK  131  A    between atoms: _333  and  _335
REMARK  132  A    between atoms: _335  and  _336
REMARK  133  A    between atoms: _335  and  _338
REMARK  134  A    between atoms: _338  and  _339
REMARK  135  A    between atoms: _339  and  _340
REMARK  136  A    between atoms: _342  and  _344
REMARK  137  A    between atoms: _344  and  _345
REMARK  138  A    between atoms: _344  and  _347
REMARK  139  A    between atoms: _347  and  _348
REMARK  140  A    between atoms: _348  and  _349
REMARK  141  A    between atoms: _354  and  _356
REMARK  142  A    between atoms: _356  and  _357
REMARK  143  A    between atoms: _356  and  _359
REMARK  144  A    between atoms: _362  and  _364
REMARK  145  A    between atoms: _364  and  _365
REMARK  146  A    between atoms: _364  and  _367
REMARK  147  A    between atoms: _367  and  _368
REMARK  148  A    between atoms: _378  and  _380
REMARK  149  A    between atoms: _380  and  _381
REMARK  150  A    between atoms: _380  and  _383
REMARK  151  A    between atoms: _383  and  _384
REMARK  152  A    between atoms: _387  and  _389
REMARK  153  A    between atoms: _389  and  _390
REMARK  154  A    between atoms: _389  and  _392
REMARK  155  A    between atoms: _395  and  _397
REMARK  156  A    between atoms: _397  and  _398
REMARK  157  A    between atoms: _397  and  _400
REMARK  158  A    between atoms: _400  and  _401
REMARK  159  A    between atoms: _404  and  _406
REMARK  160  A    between atoms: _406  and  _407
REMARK  161  A    between atoms: _406  and  _409
REMARK  162  A    between atoms: _409  and  _410
REMARK  163  A    between atoms: _413  and  _415
REMARK  164  A    between atoms: _415  and  _416
REMARK  165  A    between atoms: _418  and  _420
REMARK  166  A    between atoms: _420  and  _421
REMARK  167  A    between atoms: _424  and  _426
REMARK  168  A    between atoms: _426  and  _427
REMARK  169  A    between atoms: _426  and  _429
REMARK  170  A    between atoms: _429  and  _430
REMARK  171  A    between atoms: _432  and  _434
REMARK  172  A    between atoms: _434  and  _435
REMARK  173  A    between atoms: _434  and  _437
REMARK  174  A    between atoms: _437  and  _438
REMARK  175  A    between atoms: _443  and  _444
REMARK  176  A    between atoms: _446  and  _448
REMARK  177  A    between atoms: _448  and  _449
REMARK  178  A    between atoms: _448  and  _451
REMARK  179  A    between atoms: _451  and  _452
REMARK  180  A    between atoms: _455  and  _457
REMARK  181  A    between atoms: _457  and  _458
REMARK  182  A    between atoms: _457  and  _460
REMARK  183  A    between atoms: _460  and  _461
REMARK  184  A    between atoms: _463  and  _465
REMARK  185  A    between atoms: _465  and  _466
REMARK  186  A    between atoms: _468  and  _470
REMARK  187  A    between atoms: _470  and  _471
REMARK  188  A    between atoms: _470  and  _473
REMARK  189  A    between atoms: _473  and  _474
REMARK  190  A    between atoms: _480  and  _482
REMARK  191  A    between atoms: _482  and  _483
REMARK  192  A    between atoms: _482  and  _485
REMARK  193  A    between atoms: _485  and  _486
REMARK  194  A    between atoms: _489  and  _491
REMARK  195  A    between atoms: _491  and  _492
REMARK  196  A    between atoms: _491  and  _494
REMARK  197  A    between atoms: _494  and  _495
REMARK  198  A    between atoms: _501  and  _503
REMARK  199  A    between atoms: _503  and  _504
REMARK  200  A    between atoms: _503  and  _506
REMARK  201  A    between atoms: _506  and  _507
REMARK  202  A    between atoms: _510  and  _512
REMARK  203  A    between atoms: _512  and  _513
REMARK  204  A    between atoms: _512  and  _515
REMARK  205  A    between atoms: _515  and  _516
REMARK  206  A    between atoms: _519  and  _521
REMARK  207  A    between atoms: _521  and  _522
REMARK  208  A    between atoms: _525  and  _527
REMARK  209  A    between atoms: _527  and  _528
REMARK  210  A    between atoms: _527  and  _530
REMARK  211  A    between atoms: _530  and  _531
REMARK  212  A    between atoms: _534  and  _536
REMARK  213  A    between atoms: _536  and  _537
REMARK  214  A    between atoms: _536  and  _539
REMARK  215  A    between atoms: _539  and  _540
REMARK  216  A    between atoms: _545  and  _547
REMARK  217  A    between atoms: _547  and  _548
REMARK  218  A    between atoms: _551  and  _553
REMARK  219  A    between atoms: _553  and  _554
REMARK  220  A    between atoms: _553  and  _556
REMARK  221  A    between atoms: _556  and  _557
REMARK  222  A    between atoms: _557  and  _558
REMARK  223  A    between atoms: _560  and  _562
REMARK  224  A    between atoms: _562  and  _563
REMARK  225  A    between atoms: _562  and  _565
REMARK  226  A    between atoms: _565  and  _566
REMARK  227  A    between atoms: _569  and  _571
REMARK  228  A    between atoms: _571  and  _572
REMARK  229  A    between atoms: _571  and  _574
REMARK  230  A    between atoms: _574  and  _575
REMARK  231  A    between atoms: _579  and  _580
REMARK  232  A    between atoms: _585  and  _587
REMARK  233  A    between atoms: _587  and  _588
REMARK  234  A    between atoms: _587  and  _590
REMARK  235  A    between atoms: _590  and  _591
REMARK  236  A    between atoms: _594  and  _596
REMARK  237  A    between atoms: _596  and  _597
REMARK  238  A    between atoms: _599  and  _601
REMARK  239  A    between atoms: _601  and  _602
REMARK  240  A    between atoms: _601  and  _604
REMARK  241  A    between atoms: _604  and  _605
REMARK  242  A    between atoms: _608  and  _610
REMARK  243  A    between atoms: _610  and  _611
REMARK  244  A    between atoms: _610  and  _613
REMARK  245  A    between atoms: _613  and  _614
REMARK  246  A    between atoms: _624  and  _626
REMARK  247  A    between atoms: _626  and  _627
REMARK  248  A    between atoms: _630  and  _632
REMARK  249  A    between atoms: _632  and  _633
REMARK  250  A    between atoms: _632  and  _635
REMARK  251  A    between atoms: _635  and  _636
REMARK  252  A    between atoms: _639  and  _641
REMARK  253  A    between atoms: _641  and  _642
REMARK  254  A    between atoms: _644  and  _646
REMARK  255  A    between atoms: _646  and  _647
REMARK                            x       y       z     vdW  Elec       q    Type
REMARK                         _______ _______ _______ _____ _____    ______ ____
ROOT
ATOM      1  CB  PHE A   1       7.194   5.123 -18.857  0.00  0.00    +0.051 C 
ENDROOT
BRANCH   1   2
ATOM      2  CG  PHE A   1       6.117   5.609 -17.923  0.00  0.00    -0.020 A 
ATOM      3  CD2 PHE A   1       5.192   4.716 -17.394  0.00  0.00    -0.004 A 
ATOM      4  CE2 PHE A   1       4.192   5.157 -16.552  0.00  0.00    -0.000 A 
ATOM      5  CZ  PHE A   1       4.106   6.519 -16.208  0.00  0.00    -0.000 A 
ATOM      6  CE1 PHE A   1       5.030   7.425 -16.723  0.00  0.00    -0.000 A 
ATOM      7  CD1 PHE A   1       6.018   6.962 -17.593  0.00  0.00    -0.004 A 
ENDBRANCH   1   2
BRANCH   1   8
ATOM      8  CA  PHE A   1       6.950   5.495 -20.342  0.00  0.00    +0.137 C 
BRANCH   8   9
ATOM      9  N   PHE A   1       5.758   4.868 -20.902  0.00  0.00    -0.239 NA
ATOM     10  H   PHE A   1       5.346   4.046 -20.417  0.00  0.00    +0.142 HD
ENDBRANCH   8   9
BRANCH   8  11
ATOM     11  C   PHE A   1       8.163   5.161 -21.202  0.00  0.00    +0.224 C 
ATOM     12  O   PHE A   1       8.761   4.095 -21.063  0.00  0.00    -0.287 OA
ENDBRANCH   8  11
ENDBRANCH   1   8
TORSDOF 4
REMARK  Name = ../refined-set-2016/3d91/3d91_pocket.pdb
REMARK  255 active torsions:
REMARK  status: ('A' for Active; 'I' for Inactive)
REMARK    1  A    between atoms: _1  and  _3
REMARK    2  A    between atoms: _3  and  _4
REMARK    3  A    between atoms: _3  and  _6
REMARK    4  A    between atoms: _6  and  _7
REMARK    5  A    between atoms: _12  and  _13
REMARK    6  A    between atoms: _15  and  _17
REMARK    7  A    between atoms: _17  and  _18
REMARK    8  A    between atoms: _17  and  _20
REMARK    9  A    between atoms: _20  and  _21
REMARK   10  A    between atoms: _24  and  _26
REMARK   11  A    between atoms: _26  and  _27
REMARK   12  A    between atoms: _26  and  _29
REMARK   13  A    between atoms: _29  and  _30
REMARK   14  A    between atoms: _33  and  _35
REMARK   15  A    between atoms: _35  and  _36
REMARK   16  A    between atoms: _35  and  _38
REMARK   17  A    between atoms: _38  and  _39
REMARK   18  A    between atoms: _39  and  _40
REMARK   19  A    between atoms: _45  and  _47
REMARK   20  A    between atoms: _47  and  _48
REMARK   21  A    between atoms: _47  and  _50
REMARK   22  A    between atoms: _50  and  _51
REMARK   23  A    between atoms: _56  and  _57
REMARK   24  A    between atoms: _59  and  _61
REMARK   25  A    between atoms: _61  and  _62
REMARK   26  A    between atoms: _61  and  _64
REMARK   27  A    between atoms: _67  and  _69
REMARK   28  A    between atoms: _69  and  _70
REMARK   29  A    between atoms: _69  and  _72
REMARK   30  A    between atoms: _75  and  _77
REMARK   31  A    between atoms: _77  and  _78
REMARK   32  A    between atoms: _77  and  _80
REMARK   33  A    between atoms: _80  and  _81
REMARK   34  A    between atoms: _87  and  _89
REMARK   35  A    between atoms: _89  and  _90
REMARK   36  A    between atoms: _89  and  _92
REMARK   37  A    between atoms: _92  and  _93
REMARK   38  A    between atoms: _96  and  _98
REMARK   39  A    between atoms: _98  and  _99
REMARK   40  A    between atoms: _98  and  _101
REMARK   41  A    between atoms: _101  and  _102
REMARK   42  A    between atoms: _105  and  _107
REMARK   43  A    between atoms: _107  and  _108
REMARK   44  A    between atoms: _110  and  _112
REMARK   45  A    between atoms: _112  and  _113
REMARK   46  A    between atoms: _112  and  _115
REMARK   47  A    between atoms: _115  and  _116
REMARK   48  A    between atoms: _118  and  _120
REMARK   49  A    between atoms: _120  and  _121
REMARK   50  A    between atoms: _120  and  _123
REMARK   51  A    between atoms: _123  and  _124
REMARK   52  A    between atoms: _126  and  _128
REMARK   53  A    between atoms: _128  and  _129
REMARK   54  A    between atoms: _128  and  _131
REMARK   55  A    between atoms: _131  and  _132
REMARK   56  A    between atoms: _142  and  _144
REMARK   57  A    between atoms: _144  and  _145
REMARK   58  A    between atoms: _144  and  _147
REMARK   59  A    between atoms: _147  and  _148
REMARK   60  A    between atoms: _153  and  _155
REMARK   61  A    between atoms: _155  and  _156
REMARK   62  A    between atoms: _155  and  _158
REMARK   63  A    between atoms: _158  and  _159
REMARK   64  A    between atoms: _162  and  _164
REMARK   65  A    between atoms: _164  and  _165
REMARK   66  A    between atoms: _164  and  _167
REMARK   67  A    between atoms: _167  and  _168
REMARK   68  A    between atoms: _168  and  _169
REMARK   69  A    between atoms: _169  and  _170
REMARK   70  A    between atoms: _179  and  _181
REMARK   71  A    between atoms: _181  and  _182
REMARK   72  A    between atoms: _181  and  _184
REMARK   73  A    between atoms: _184  and  _185
REMARK   74  A    between atoms: _190  and  _191
REMARK   75  A    between atoms: _193  and  _195
REMARK   76  A    between atoms: _195  and  _196
REMARK   77  A    between atoms: _195  and  _198
REMARK   78  A    between atoms: _198  and  _199
REMARK   79  A    between atoms: _201  and  _203
REMARK   80  A    between atoms: _203  and  _204
REMARK   81  A    between atoms: _203  and  _206
REMARK   82  A    between atoms: _206  and  _207
REMARK   83  A    between atoms: _210  and  _212
REMARK   84  A    between atoms: _212  and  _213
REMARK   85  A    between atoms: _215  and  _217
REMARK   86  A    between atoms: _217  and  _218
REMARK   87  A    between atoms: _217  and  _220
REMARK   88  A    between atoms: _220  and  _221
REMARK   89  A    between atoms: _224  and  _226
REMARK   90  A    between atoms: _226  and  _227
REMARK   91  A    between atoms: _226  and  _229
REMARK   92  A    between atoms: _232  and  _234
REMARK   93  A    between atoms: _234  and  _235
REMARK   94  A    between atoms: _238  and  _240
REMARK   95  A    between atoms: _240  and  _241
REMARK   96  A    between atoms: _240  and  _243
REMARK   97  A    between atoms: _243  and  _244
REMARK   98  A    between atoms: _248  and  _249
REMARK   99  A    between atoms: _254  and  _256
REMARK  100  A    between atoms: _256  and  _257
REMARK  101  A    between atoms: _256  and  _259
REMARK  102  A    between atoms: _259  and  _260
REMARK  103  A    between atoms: _266  and  _268
REMARK  104  A    between atoms: _268  and  _269
REMARK  105  A    between atoms: _268  and  _271
REMARK  106  A    between atoms: _271  and  _272
REMARK  107  A    between atoms: _272  and  _273
REMARK  108  A    between atoms: _275  and  _277
REMARK  109  A    between atoms: _277  and  _278
REMARK  110  A    between atoms: _277  and  _280
REMARK  111  A    between atoms: _280  and  _281
REMARK  112  A    between atoms: _284  and  _286
REMARK  113  A    between atoms: _286  and  _287
REMARK  114  A    between atoms: _290  and  _292
REMARK  115  A    between atoms: _292  and  _293
REMARK  116  A    between atoms: _292  and  _295
REMARK  117  A    between atoms: _295  and  _296
REMARK  118  A    between atoms: _296  and  _297
REMARK  119  A    between atoms: _300  and  _302
REMARK  120  A    between atoms: _302  and  _303
REMARK  121  A    between atoms: _302  and  _305
REMARK  122  A    between atoms: _305  and  _306
REMARK  123  A    between atoms: _312  and  _314
REMARK  124  A    between atoms: _314  and  _315
REMARK  125  A    between atoms: _317  and  _319
REMARK  126  A    between atoms: _319  and  _320
REMARK  127  A    between atoms: _319  and  _322
REMARK  128  A    between atoms: _325  and  _327
REMARK  129  A    between atoms: _327  and  _328
REMARK  130  A    between atoms: _327  and  _330
REMARK  131  A    between atoms: _333  and  _335
REMARK  132  A    between atoms: _335  and  _336
REMARK  133  A    between atoms: _335  and  _338
REMARK  134  A    between atoms: _338  and  _339
REMARK  135  A    between atoms: _339  and  _340
REMARK  136  A    between atoms: _342  and  _344
REMARK  137  A    between atoms: _344  and  _345
REMARK  138  A    between atoms: _344  and  _347
REMARK  139  A    between atoms: _347  and  _348
REMARK  140  A    between atoms: _348  and  _349
REMARK  141  A    between atoms: _354  and  _356
REMARK  142  A    between atoms: _356  and  _357
REMARK  143  A    between atoms: _356  and  _359
REMARK  144  A    between atoms: _362  and  _364
REMARK  145  A    between atoms: _364  and  _365
REMARK  146  A    between atoms: _364  and  _367
REMARK  147  A    between atoms: _367  and  _368
REMARK  148  A    between atoms: _378  and  _380
REMARK  149  A    between atoms: _380  and  _381
REMARK  150  A    between atoms: _380  and  _383
REMARK  151  A    between atoms: _383  and  _384
REMARK  152  A    between atoms: _387  and  _389
REMARK  153  A    between atoms: _389  and  _390
REMARK  154  A    between atoms: _389  and  _392
REMARK  155  A    between atoms: _395  and  _397
REMARK  156  A    between atoms: _397  and  _398
REMARK  157  A    between atoms: _397  and  _400
REMARK  158  A    between atoms: _400  and  _401
REMARK  159  A    between atoms: _404  and  _406
REMARK  160  A    between atoms: _406  and  _407
REMARK  161  A    between atoms: _406  and  _409
REMARK  162  A    between atoms: _409  and  _410
REMARK  163  A    between atoms: _413  and  _415
REMARK  164  A    between atoms: _415  and  _416
REMARK  165  A    between atoms: _418  and  _420
REMARK  166  A    between atoms: _420  and  _421
REMARK  167  A    between atoms: _424  and  _426
REMARK  168  A    between atoms: _426  and  _427
REMARK  169  A    between atoms: _426  and  _429
REMARK  170  A    between atoms: _429  and  _430
REMARK  171  A    between atoms: _432  and  _434
REMARK  172  A    between atoms: _434  and  _435
REMARK  173  A    between atoms: _434  and  _437
REMARK  174  A    between atoms: _437  and  _438
REMARK  175  A    between atoms: _443  and  _444
REMARK  176  A    between atoms: _446  and  _448
REMARK  177  A    between atoms: _448  and  _449
REMARK  178  A    between atoms: _448  and  _451
REMARK  179  A    between atoms: _451  and  _452
REMARK  180  A    between atoms: _455  and  _457
REMARK  181  A    between atoms: _457  and  _458
REMARK  182  A    between atoms: _457  and  _460
REMARK  183  A    between atoms: _460  and  _461
REMARK  184  A    between atoms: _463  and  _465
REMARK  185  A    between atoms: _465  and  _466
REMARK  186  A    between atoms: _468  and  _470
REMARK  187  A    between atoms: _470  and  _471
REMARK  188  A    between atoms: _470  and  _473
REMARK  189  A    between atoms: _473  and  _474
REMARK  190  A    between atoms: _480  and  _482
REMARK  191  A    between atoms: _482  and  _483
REMARK  192  A    between atoms: _482  and  _485
REMARK  193  A    between atoms: _485  and  _486
REMARK  194  A    between atoms: _489  and  _491
REMARK  195  A    between atoms: _491  and  _492
REMARK  196  A    between atoms: _491  and  _494
REMARK  197  A    between atoms: _494  and  _495
REMARK  198  A    between atoms: _501  and  _503
REMARK  199  A    between atoms: _503  and  _504
REMARK  200  A    between atoms: _503  and  _506
REMARK  201  A    between atoms: _506  and  _507
REMARK  202  A    between atoms: _510  and  _512
REMARK  203  A    between atoms: _512  and  _513
REMARK  204  A    between atoms: _512  and  _515
REMARK  205  A    between atoms: _515  and  _516
REMARK  206  A    between atoms: _519  and  _521
REMARK  207  A    between atoms: _521  and  _522
REMARK  208  A    between atoms: _525  and  _527
REMARK  209  A    between atoms: _527  and  _528
REMARK  210  A    between atoms: _527  and  _530
REMARK  211  A    between atoms: _530  and  _531
REMARK  212  A    between atoms: _534  and  _536
REMARK  213  A    between atoms: _536  and  _537
REMARK  214  A    between atoms: _536  and  _539
REMARK  215  A    between atoms: _539  and  _540
REMARK  216  A    between atoms: _545  and  _547
REMARK  217  A    between atoms: _547  and  _548
REMARK  218  A    between atoms: _551  and  _553
REMARK  219  A    between atoms: _553  and  _554
REMARK  220  A    between atoms: _553  and  _556
REMARK  221  A    between atoms: _556  and  _557
REMARK  222  A    between atoms: _557  and  _558
REMARK  223  A    between atoms: _560  and  _562
REMARK  224  A    between atoms: _562  and  _563
REMARK  225  A    between atoms: _562  and  _565
REMARK  226  A    between atoms: _565  and  _566
REMARK  227  A    between atoms: _569  and  _571
REMARK  228  A    between atoms: _571  and  _572
REMARK  229  A    between atoms: _571  and  _574
REMARK  230  A    between atoms: _574  and  _575
REMARK  231  A    between atoms: _579  and  _580
REMARK  232  A    between atoms: _585  and  _587
REMARK  233  A    between atoms: _587  and  _588
REMARK  234  A    between atoms: _587  and  _590
REMARK  235  A    between atoms: _590  and  _591
REMARK  236  A    between atoms: _594  and  _596
REMARK  237  A    between atoms: _596  and  _597
REMARK  238  A    between atoms: _599  and  _601
REMARK  239  A    between atoms: _601  and  _602
REMARK  240  A    between atoms: _601  and  _604
REMARK  241  A    between atoms: _604  and  _605
REMARK  242  A    between atoms: _608  and  _610
REMARK  243  A    between atoms: _610  and  _611
REMARK  244  A    between atoms: _610  and  _613
REMARK  245  A    between atoms: _613  and  _614
REMARK  246  A    between atoms: _624  and  _626
REMARK  247  A    between atoms: _626  and  _627
REMARK  248  A    between atoms: _630  and  _632
REMARK  249  A    between atoms: _632  and  _633
REMARK  250  A    between atoms: _632  and  _635
REMARK  251  A    between atoms: _635  and  _636
REMARK  252  A    between atoms: _639  and  _641
REMARK  253  A    between atoms: _641  and  _642
REMARK  254  A    between atoms: _644  and  _646
REMARK  255  A    between atoms: _646  and  _647
REMARK                            x       y       z     vdW  Elec       q    Type
REMARK                         _______ _______ _______ _____ _____    ______ ____
ROOT
ATOM      1  CA  HIS A   5      -2.767  -1.806 -15.046  0.00  0.00    +0.155 C 
ENDROOT
BRANCH   1   2
ATOM      2  C   HIS A   5      -4.103  -2.402 -14.529  0.00  0.00    +0.241 C 
ATOM      3  N   ALA A   6      -4.026  -3.534 -13.840  0.00  0.00    -0.297 N 
ATOM      4  H   ALA A   6      -3.091  -3.936 -13.627  0.00  0.00    +0.150 HD
ATOM      5  O   HIS A   5      -5.178  -1.857 -14.780  0.00  0.00    -0.273 OA
BRANCH   3   6
ATOM      6  CA  ALA A   6      -5.223  -4.230 -13.373  0.00  0.00    +0.149 C 
ATOM      7  CB  ALA A   6      -5.088  -5.783 -13.535  0.00  0.00    +0.031 C 
BRANCH   6   8
ATOM      8  C   ALA A   6      -5.469  -3.871 -11.931  0.00  0.00    +0.241 C 
ATOM      9  O   ALA A   6      -4.568  -3.933 -11.107  0.00  0.00    -0.273 OA
ATOM     10  N   MET A   7      -6.711  -3.526 -11.629  0.00  0.00    -0.297 N 
ATOM     11  H   MET A   7      -7.446  -3.602 -12.360  0.00  0.00    +0.150 HD
BRANCH  10  12
ATOM     12  CA  MET A   7      -7.076  -3.049 -10.322  0.00  0.00    +0.149 C 
BRANCH  12  13
ATOM     13  C   MET A   7      -8.528  -3.426 -10.127  0.00  0.00    +0.241 C 
ATOM     14  N   ASP A   8      -8.744  -4.517  -9.394  0.00  0.00    -0.297 N 
ATOM     15  H   ASP A   8      -7.925  -5.031  -9.012  0.00  0.00    +0.150 HD
ATOM     16  O   MET A   7      -9.426  -2.745 -10.642  0.00  0.00    -0.273 OA
BRANCH  14  17
ATOM     17  CA  ASP A   8     -10.088  -5.023  -9.103  0.00  0.00    +0.160 C 
BRANCH  17  18
ATOM     18  C   ASP A   8     -10.729  -4.277  -7.947  0.00  0.00    +0.241 C 
ATOM     19  O   ASP A   8     -10.431  -4.547  -6.770  0.00  0.00    -0.273 OA
ATOM     20  N   ILE A   9     -11.621  -3.356  -8.292  0.00  0.00    -0.297 N 
ATOM     21  H   ILE A   9     -11.794  -3.173  -9.301  0.00  0.00    +0.150 HD
BRANCH  20  22
ATOM     22  CA  ILE A   9     -12.360  -2.599  -7.301  0.00  0.00    +0.149 C 
BRANCH  22  23
ATOM     23  C   ILE A   9     -13.634  -3.389  -6.927  0.00  0.00    +0.244 C 
ATOM     24  N   PRO A  10     -13.818  -3.706  -5.620  0.00  0.00    -0.273 N 
ATOM     25  CD  PRO A  10     -12.980  -3.287  -4.478  0.00  0.00    +0.094 C 
ATOM     26  CG  PRO A  10     -13.352  -4.235  -3.402  0.00  0.00    +0.024 C 
ATOM     27  CB  PRO A  10     -14.668  -4.854  -3.736  0.00  0.00    +0.030 C 
ATOM     28  CA  PRO A  10     -14.984  -4.487  -5.196  0.00  0.00    +0.140 C 
ATOM     29  O   ILE A   9     -14.438  -3.720  -7.805  0.00  0.00    -0.273 OA
BRANCH  28  30
ATOM     30  C   PRO A  10     -16.267  -3.647  -5.244  0.00  0.00    +0.227 C 
ATOM     31  O   PRO A  10     -16.185  -2.402  -5.154  0.00  0.00    -0.286 OA
ENDBRANCH  28  30
ENDBRANCH  22  23
BRANCH  22  32
ATOM     32  CB  ILE A   9     -12.652  -1.148  -7.818  0.00  0.00    +0.027 C 
ATOM     33  CG2 ILE A   9     -13.370  -0.307  -6.758  0.00  0.00    +0.002 C 
BRANCH  32  34
ATOM     34  CG1 ILE A   9     -11.337  -0.472  -8.248  0.00  0.00    +0.002 C 
ATOM     35  CD1 ILE A   9     -11.426   0.343  -9.526  0.00  0.00    +0.000 C 
ENDBRANCH  32  34
ENDBRANCH  22  32
ENDBRANCH  20  22
ENDBRANCH  17  18
BRANCH  17  36
ATOM     36  CB  ASP A   8     -10.072  -6.532  -8.788  0.00  0.00    +0.143 C 
BRANCH  36  37
ATOM     37  CG  ASP A   8      -9.707  -7.367  -9.986  0.00  0.00    +0.367 C 
ATOM     38  OD2 ASP A   8      -8.558  -7.836 -10.044  0.00  0.00    -0.246 OA
ATOM     39  OD1 ASP A   8     -10.556  -7.542 -10.874  0.00  0.00    -0.246 OA
ENDBRANCH  36  37
ENDBRANCH  17  36
ENDBRANCH  14  17
ENDBRANCH  12  13
BRANCH  12  40
ATOM     40  CB  MET A   7      -6.868  -1.521 -10.241  0.00  0.00    +0.041 C 
BRANCH  40  41
ATOM     41  CG  MET A   7      -6.463  -0.979  -8.882  0.00  0.00    +0.060 C 
BRANCH  41  42
ATOM     42  SD  MET A   7      -5.074  -1.853  -8.112  0.00  0.00    -0.139 S 
ATOM     43  CE  MET A   7      -3.754  -1.473  -9.238  0.00  0.00    +0.069 C 
ENDBRANCH  41  42
ENDBRANCH  40  41
ENDBRANCH  12  40
ENDBRANCH  10  12
ENDBRANCH   6   8
ENDBRANCH   3   6
ENDBRANCH   1   2
BRANCH   1  45
ATOM     44  C   ILE A   4      -1.890  -0.165 -16.634  0.00  0.00    +0.241 C 
ATOM     45  N   HIS A   5      -2.886  -0.590 -15.855  0.00  0.00    -0.297 N 
ATOM     46  H   HIS A   5      -3.770  -0.044 -15.821  0.00  0.00    +0.150 HD
ATOM     47  O   ILE A   4      -0.799  -0.738 -16.688  0.00  0.00    -0.273 OA
BRANCH  44  48
ATOM     48  CA  ILE A   4      -2.139   1.115 -17.468  0.00  0.00    +0.149 C 
BRANCH  48  51
ATOM     49  C   ALA A   3      -0.753   3.216 -17.512  0.00  0.00    +0.241 C 
ATOM     50  O   ALA A   3      -1.704   4.000 -17.299  0.00  0.00    -0.273 OA
ATOM     51  N   ILE A   4      -0.875   1.874 -17.610  0.00  0.00    -0.297 N 
ATOM     52  H   ILE A   4      -0.010   1.329 -17.801  0.00  0.00    +0.150 HD
BRANCH  49  53
ATOM     53  CA  ALA A   3       0.658   3.780 -17.719  0.00  0.00    +0.149 C 
ATOM     54  CB  ALA A   3       0.579   5.240 -18.083  0.00  0.00    +0.031 C 
BRANCH  53  57
ATOM     55  C   LEU A   2       1.977   1.914 -18.501  0.00  0.00    +0.241 C 
ATOM     56  O   LEU A   2       1.910   1.366 -17.412  0.00  0.00    -0.273 OA
ATOM     57  N   ALA A   3       1.380   3.064 -18.756  0.00  0.00    -0.297 N 
ATOM     58  H   ALA A   3       1.428   3.463 -19.715  0.00  0.00    +0.150 HD
BRANCH  55  59
ATOM     59  CA  LEU A   2       2.760   1.285 -19.646  0.00  0.00    +0.149 C 
BRANCH  59  61
ATOM     60  C   THR A   1       5.201   1.111 -19.414  0.00  0.00    +0.241 C 
ATOM     61  N   LEU A   2       3.975   0.654 -19.166  0.00  0.00    -0.297 N 
ATOM     62  H   LEU A   2       3.883  -0.209 -18.593  0.00  0.00    +0.150 HD
ATOM     63  O   THR A   1       5.435   2.096 -20.127  0.00  0.00    -0.274 OA
BRANCH  60  64
ATOM     64  CA  THR A   1       6.323   0.309 -18.740  0.00  0.00    +0.172 C 
BRANCH  64  65
ATOM     65  N   THR A   1       7.631   0.389 -19.394  0.00  0.00    -0.236 NA
ATOM     66  H   THR A   1       8.420   0.826 -18.877  0.00  0.00    +0.142 HD
ENDBRANCH  64  65
BRANCH  64  67
ATOM     67  CB  THR A   1       6.378   0.722 -17.249  0.00  0.00    +0.135 C 
ATOM     68  CG2 THR A   1       5.207   0.150 -16.485  0.00  0.00    +0.034 C 
BRANCH  67  69
ATOM     69  OG1 THR A   1       7.564   0.211 -16.644  0.00  0.00    -0.383 OA
ATOM     70  HG1 THR A   1       8.356   0.576 -17.113  0.00  0.00    +0.210 HD
ENDBRANCH  67  69
ENDBRANCH  64  67
ENDBRANCH  60  64
ENDBRANCH  59  61
BRANCH  59  71
ATOM     71  CB  LEU A   2       1.890   0.259 -20.363  0.00  0.00    +0.029 C 
BRANCH  71  72
ATOM     72  CG  LEU A   2       2.587  -0.495 -21.505  0.00  0.00    +0.002 C 
ATOM     73  CD2 LEU A   2       1.762  -1.725 -21.915  0.00  0.00    +0.000 C 
ATOM     74  CD1 LEU A   2       2.793   0.443 -22.642  0.00  0.00    +0.000 C 
ENDBRANCH  71  72
ENDBRANCH  59  71
ENDBRANCH  55  59
ENDBRANCH  53  57
ENDBRANCH  49  53
ENDBRANCH  48  51
BRANCH  48  75
ATOM     75  CB  ILE A   4      -2.711   0.657 -18.846  0.00  0.00    +0.027 C 
ATOM     76  CG2 ILE A   4      -4.150   0.162 -18.709  0.00  0.00    +0.002 C 
BRANCH  75  77
ATOM     77  CG1 ILE A   4      -2.651   1.757 -19.898  0.00  0.00    +0.002 C 
ATOM     78  CD1 ILE A   4      -2.776   1.262 -21.331  0.00  0.00    +0.000 C 
ENDBRANCH  75  77
ENDBRANCH  48  75
ENDBRANCH  44  48
ENDBRANCH   1  45
BRANCH   1  79
ATOM     79  CB  HIS A   5      -1.699  -1.643 -13.940  0.00  0.00    +0.076 C 
BRANCH  79  80
ATOM     80  CG  HIS A   5      -2.035  -0.650 -12.875  0.00  0.00    +0.082 A 
ATOM     81  CD2 HIS A   5      -1.393  -0.345 -11.722  0.00  0.00    +0.115 A 
ATOM     82  NE2 HIS A   5      -2.119   0.650 -11.102  0.00  0.00    -0.221 NA
ATOM     83  CE1 HIS A   5      -3.156   0.958 -11.858  0.00  0.00    +0.199 A 
ATOM     84  ND1 HIS A   5      -3.112   0.211 -12.949  0.00  0.00    -0.227 NA
ENDBRANCH  79  80
ENDBRANCH   1  79
TORSDOF 34
REMARK  Name = ../refined-set-2016/3d91/3d91_pocket.pdb
REMARK  255 active torsions:
REMARK  status: ('A' for Active; 'I' for Inactive)
REMARK    1  A    between atoms: _1  and  _3
REMARK    2  A    between atoms: _3  and  _4
REMARK    3  A    between atoms: _3  and  _6
REMARK    4  A    between atoms: _6  and  _7
REMARK    5  A    between atoms: _12  and  _13
REMARK    6  A    between atoms: _15  and  _17
REMARK    7  A    between atoms: _17  and  _18
REMARK    8  A    between atoms: _17  and  _20
REMARK    9  A    between atoms: _20  and  _21
REMARK   10  A    between atoms: _24  and  _26
REMARK   11  A    between atoms: _26  and  _27
REMARK   12  A    between atoms: _26  and  _29
REMARK   13  A    between atoms: _29  and  _30
REMARK   14  A    between atoms: _33  and  _35
REMARK   15  A    between atoms: _35  and  _36
REMARK   16  A    between atoms: _35  and  _38
REMARK   17  A    between atoms: _38  and  _39
REMARK   18  A    between atoms: _39  and  _40
REMARK   19  A    between atoms: _45  and  _47
REMARK   20  A    between atoms: _47  and  _48
REMARK   21  A    between atoms: _47  and  _50
REMARK   22  A    between atoms: _50  and  _51
REMARK   23  A    between atoms: _56  and  _57
REMARK   24  A    between atoms: _59  and  _61
REMARK   25  A    between atoms: _61  and  _62
REMARK   26  A    between atoms: _61  and  _64
REMARK   27  A    between atoms: _67  and  _69
REMARK   28  A    between atoms: _69  and  _70
REMARK   29  A    between atoms: _69  and  _72
REMARK   30  A    between atoms: _75  and  _77
REMARK   31  A    between atoms: _77  and  _78
REMARK   32  A    between atoms: _77  and  _80
REMARK   33  A    between atoms: _80  and  _81
REMARK   34  A    between atoms: _87  and  _89
REMARK   35  A    between atoms: _89  and  _90
REMARK   36  A    between atoms: _89  and  _92
REMARK   37  A    between atoms: _92  and  _93
REMARK   38  A    between atoms: _96  and  _98
REMARK   39  A    between atoms: _98  and  _99
REMARK   40  A    between atoms: _98  and  _101
REMARK   41  A    between atoms: _101  and  _102
REMARK   42  A    between atoms: _105  and  _107
REMARK   43  A    between atoms: _107  and  _108
REMARK   44  A    between atoms: _110  and  _112
REMARK   45  A    between atoms: _112  and  _113
REMARK   46  A    between atoms: _112  and  _115
REMARK   47  A    between atoms: _115  and  _116
REMARK   48  A    between atoms: _118  and  _120
REMARK   49  A    between atoms: _120  and  _121
REMARK   50  A    between atoms: _120  and  _123
REMARK   51  A    between atoms: _123  and  _124
REMARK   52  A    between atoms: _126  and  _128
REMARK   53  A    between atoms: _128  and  _129
REMARK   54  A    between atoms: _128  and  _131
REMARK   55  A    between atoms: _131  and  _132
REMARK   56  A    between atoms: _142  and  _144
REMARK   57  A    between atoms: _144  and  _145
REMARK   58  A    between atoms: _144  and  _147
REMARK   59  A    between atoms: _147  and  _148
REMARK   60  A    between atoms: _153  and  _155
REMARK   61  A    between atoms: _155  and  _156
REMARK   62  A    between atoms: _155  and  _158
REMARK   63  A    between atoms: _158  and  _159
REMARK   64  A    between atoms: _162  and  _164
REMARK   65  A    between atoms: _164  and  _165
REMARK   66  A    between atoms: _164  and  _167
REMARK   67  A    between atoms: _167  and  _168
REMARK   68  A    between atoms: _168  and  _169
REMARK   69  A    between atoms: _169  and  _170
REMARK   70  A    between atoms: _179  and  _181
REMARK   71  A    between atoms: _181  and  _182
REMARK   72  A    between atoms: _181  and  _184
REMARK   73  A    between atoms: _184  and  _185
REMARK   74  A    between atoms: _190  and  _191
REMARK   75  A    between atoms: _193  and  _195
REMARK   76  A    between atoms: _195  and  _196
REMARK   77  A    between atoms: _195  and  _198
REMARK   78  A    between atoms: _198  and  _199
REMARK   79  A    between atoms: _201  and  _203
REMARK   80  A    between atoms: _203  and  _204
REMARK   81  A    between atoms: _203  and  _206
REMARK   82  A    between atoms: _206  and  _207
REMARK   83  A    between atoms: _210  and  _212
REMARK   84  A    between atoms: _212  and  _213
REMARK   85  A    between atoms: _215  and  _217
REMARK   86  A    between atoms: _217  and  _218
REMARK   87  A    between atoms: _217  and  _220
REMARK   88  A    between atoms: _220  and  _221
REMARK   89  A    between atoms: _224  and  _226
REMARK   90  A    between atoms: _226  and  _227
REMARK   91  A    between atoms: _226  and  _229
REMARK   92  A    between atoms: _232  and  _234
REMARK   93  A    between atoms: _234  and  _235
REMARK   94  A    between atoms: _238  and  _240
REMARK   95  A    between atoms: _240  and  _241
REMARK   96  A    between atoms: _240  and  _243
REMARK   97  A    between atoms: _243  and  _244
REMARK   98  A    between atoms: _248  and  _249
REMARK   99  A    between atoms: _254  and  _256
REMARK  100  A    between atoms: _256  and  _257
REMARK  101  A    between atoms: _256  and  _259
REMARK  102  A    between atoms: _259  and  _260
REMARK  103  A    between atoms: _266  and  _268
REMARK  104  A    between atoms: _268  and  _269
REMARK  105  A    between atoms: _268  and  _271
REMARK  106  A    between atoms: _271  and  _272
REMARK  107  A    between atoms: _272  and  _273
REMARK  108  A    between atoms: _275  and  _277
REMARK  109  A    between atoms: _277  and  _278
REMARK  110  A    between atoms: _277  and  _280
REMARK  111  A    between atoms: _280  and  _281
REMARK  112  A    between atoms: _284  and  _286
REMARK  113  A    between atoms: _286  and  _287
REMARK  114  A    between atoms: _290  and  _292
REMARK  115  A    between atoms: _292  and  _293
REMARK  116  A    between atoms: _292  and  _295
REMARK  117  A    between atoms: _295  and  _296
REMARK  118  A    between atoms: _296  and  _297
REMARK  119  A    between atoms: _300  and  _302
REMARK  120  A    between atoms: _302  and  _303
REMARK  121  A    between atoms: _302  and  _305
REMARK  122  A    between atoms: _305  and  _306
REMARK  123  A    between atoms: _312  and  _314
REMARK  124  A    between atoms: _314  and  _315
REMARK  125  A    between atoms: _317  and  _319
REMARK  126  A    between atoms: _319  and  _320
REMARK  127  A    between atoms: _319  and  _322
REMARK  128  A    between atoms: _325  and  _327
REMARK  129  A    between atoms: _327  and  _328
REMARK  130  A    between atoms: _327  and  _330
REMARK  131  A    between atoms: _333  and  _335
REMARK  132  A    between atoms: _335  and  _336
REMARK  133  A    between atoms: _335  and  _338
REMARK  134  A    between atoms: _338  and  _339
REMARK  135  A    between atoms: _339  and  _340
REMARK  136  A    between atoms: _342  and  _344
REMARK  137  A    between atoms: _344  and  _345
REMARK  138  A    between atoms: _344  and  _347
REMARK  139  A    between atoms: _347  and  _348
REMARK  140  A    between atoms: _348  and  _349
REMARK  141  A    between atoms: _354  and  _356
REMARK  142  A    between atoms: _356  and  _357
REMARK  143  A    between atoms: _356  and  _359
REMARK  144  A    between atoms: _362  and  _364
REMARK  145  A    between atoms: _364  and  _365
REMARK  146  A    between atoms: _364  and  _367
REMARK  147  A    between atoms: _367  and  _368
REMARK  148  A    between atoms: _378  and  _380
REMARK  149  A    between atoms: _380  and  _381
REMARK  150  A    between atoms: _380  and  _383
REMARK  151  A    between atoms: _383  and  _384
REMARK  152  A    between atoms: _387  and  _389
REMARK  153  A    between atoms: _389  and  _390
REMARK  154  A    between atoms: _389  and  _392
REMARK  155  A    between atoms: _395  and  _397
REMARK  156  A    between atoms: _397  and  _398
REMARK  157  A    between atoms: _397  and  _400
REMARK  158  A    between atoms: _400  and  _401
REMARK  159  A    between atoms: _404  and  _406
REMARK  160  A    between atoms: _406  and  _407
REMARK  161  A    between atoms: _406  and  _409
REMARK  162  A    between atoms: _409  and  _410
REMARK  163  A    between atoms: _413  and  _415
REMARK  164  A    between atoms: _415  and  _416
REMARK  165  A    between atoms: _418  and  _420
REMARK  166  A    between atoms: _420  and  _421
REMARK  167  A    between atoms: _424  and  _426
REMARK  168  A    between atoms: _426  and  _427
REMARK  169  A    between atoms: _426  and  _429
REMARK  170  A    between atoms: _429  and  _430
REMARK  171  A    between atoms: _432  and  _434
REMARK  172  A    between atoms: _434  and  _435
REMARK  173  A    between atoms: _434  and  _437
REMARK  174  A    between atoms: _437  and  _438
REMARK  175  A    between atoms: _443  and  _444
REMARK  176  A    between atoms: _446  and  _448
REMARK  177  A    between atoms: _448  and  _449
REMARK  178  A    between atoms: _448  and  _451
REMARK  179  A    between atoms: _451  and  _452
REMARK  180  A    between atoms: _455  and  _457
REMARK  181  A    between atoms: _457  and  _458
REMARK  182  A    between atoms: _457  and  _460
REMARK  183  A    between atoms: _460  and  _461
REMARK  184  A    between atoms: _463  and  _465
REMARK  185  A    between atoms: _465  and  _466
REMARK  186  A    between atoms: _468  and  _470
REMARK  187  A    between atoms: _470  and  _471
REMARK  188  A    between atoms: _470  and  _473
REMARK  189  A    between atoms: _473  and  _474
REMARK  190  A    between atoms: _480  and  _482
REMARK  191  A    between atoms: _482  and  _483
REMARK  192  A    between atoms: _482  and  _485
REMARK  193  A    between atoms: _485  and  _486
REMARK  194  A    between atoms: _489  and  _491
REMARK  195  A    between atoms: _491  and  _492
REMARK  196  A    between atoms: _491  and  _494
REMARK  197  A    between atoms: _494  and  _495
REMARK  198  A    between atoms: _501  and  _503
REMARK  199  A    between atoms: _503  and  _504
REMARK  200  A    between atoms: _503  and  _506
REMARK  201  A    between atoms: _506  and  _507
REMARK  202  A    between atoms: _510  and  _512
REMARK  203  A    between atoms: _512  and  _513
REMARK  204  A    between atoms: _512  and  _515
REMARK  205  A    between atoms: _515  and  _516
REMARK  206  A    between atoms: _519  and  _521
REMARK  207  A    between atoms: _521  and  _522
REMARK  208  A    between atoms: _525  and  _527
REMARK  209  A    between atoms: _527  and  _528
REMARK  210  A    between atoms: _527  and  _530
REMARK  211  A    between atoms: _530  and  _531
REMARK  212  A    between atoms: _534  and  _536
REMARK  213  A    between atoms: _536  and  _537
REMARK  214  A    between atoms: _536  and  _539
REMARK  215  A    between atoms: _539  and  _540
REMARK  216  A    between atoms: _545  and  _547
REMARK  217  A    between atoms: _547  and  _548
REMARK  218  A    between atoms: _551  and  _553
REMARK  219  A    between atoms: _553  and  _554
REMARK  220  A    between atoms: _553  and  _556
REMARK  221  A    between atoms: _556  and  _557
REMARK  222  A    between atoms: _557  and  _558
REMARK  223  A    between atoms: _560  and  _562
REMARK  224  A    between atoms: _562  and  _563
REMARK  225  A    between atoms: _562  and  _565
REMARK  226  A    between atoms: _565  and  _566
REMARK  227  A    between atoms: _569  and  _571
REMARK  228  A    between atoms: _571  and  _572
REMARK  229  A    between atoms: _571  and  _574
REMARK  230  A    between atoms: _574  and  _575
REMARK  231  A    between atoms: _579  and  _580
REMARK  232  A    between atoms: _585  and  _587
REMARK  233  A    between atoms: _587  and  _588
REMARK  234  A    between atoms: _587  and  _590
REMARK  235  A    between atoms: _590  and  _591
REMARK  236  A    between atoms: _594  and  _596
REMARK  237  A    between atoms: _596  and  _597
REMARK  238  A    between atoms: _599  and  _601
REMARK  239  A    between atoms: _601  and  _602
REMARK  240  A    between atoms: _601  and  _604
REMARK  241  A    between atoms: _604  and  _605
REMARK  242  A    between atoms: _608  and  _610
REMARK  243  A    between atoms: _610  and  _611
REMARK  244  A    between atoms: _610  and  _613
REMARK  245  A    between atoms: _613  and  _614
REMARK  246  A    between atoms: _624  and  _626
REMARK  247  A    between atoms: _626  and  _627
REMARK  248  A    between atoms: _630  and  _632
REMARK  249  A    between atoms: _632  and  _633
REMARK  250  A    between atoms: _632  and  _635
REMARK  251  A    between atoms: _635  and  _636
REMARK  252  A    between atoms: _639  and  _641
REMARK  253  A    between atoms: _641  and  _642
REMARK  254  A    between atoms: _644  and  _646
REMARK  255  A    between atoms: _646  and  _647
REMARK                            x       y       z     vdW  Elec       q    Type
REMARK                         _______ _______ _______ _____ _____    ______ ____
ROOT
ATOM      1  CA  THR A   1     -18.330   0.779  -6.932  0.00  0.00    +0.172 C 
ENDROOT
BRANCH   1   2
ATOM      2  C   THR A   1     -17.848  -0.083  -8.101  0.00  0.00    +0.241 C 
ATOM      3  N   GLY A   2     -17.170  -1.173  -7.772  0.00  0.00    -0.296 N 
ATOM      4  H   GLY A   2     -17.027  -1.401  -6.767  0.00  0.00    +0.150 HD
ATOM      5  O   THR A   1     -18.082   0.235  -9.268  0.00  0.00    -0.274 OA
BRANCH   3   6
ATOM      6  CA  GLY A   2     -16.621  -2.057  -8.791  0.00  0.00    +0.163 C 
BRANCH   6   7
ATOM      7  C   GLY A   2     -17.629  -3.109  -9.207  0.00  0.00    +0.229 C 
ATOM      8  O   GLY A   2     -18.676  -3.218  -8.580  0.00  0.00    -0.286 OA
ENDBRANCH   6   7
ENDBRANCH   3   6
ENDBRANCH   1   2
BRANCH   1   9
ATOM      9  N   THR A   1     -19.019  -0.025  -5.922  0.00  0.00    -0.236 NA
ATOM     10  H   THR A   1     -18.618  -0.081  -4.964  0.00  0.00    +0.142 HD
ENDBRANCH   1   9
BRANCH   1  11
ATOM     11  CB  THR A   1     -17.141   1.497  -6.300  0.00  0.00    +0.135 C 
ATOM     12  CG2 THR A   1     -16.574   2.553  -7.227  0.00  0.00    +0.034 C 
BRANCH  11  13
ATOM     13  OG1 THR A   1     -17.564   2.075  -5.063  0.00  0.00    -0.383 OA
ATOM     14  HG1 THR A   1     -17.887   1.360  -4.459  0.00  0.00    +0.210 HD
ENDBRANCH  11  13
ENDBRANCH   1  11
TORSDOF 6
REMARK  Name = ../refined-set-2016/3d91/3d91_pocket.pdb
REMARK  255 active torsions:
REMARK  status: ('A' for Active; 'I' for Inactive)
REMARK    1  A    between atoms: _1  and  _3
REMARK    2  A    between atoms: _3  and  _4
REMARK    3  A    between atoms: _3  and  _6
REMARK    4  A    between atoms: _6  and  _7
REMARK    5  A    between atoms: _12  and  _13
REMARK    6  A    between atoms: _15  and  _17
REMARK    7  A    between atoms: _17  and  _18
REMARK    8  A    between atoms: _17  and  _20
REMARK    9  A    between atoms: _20  and  _21
REMARK   10  A    between atoms: _24  and  _26
REMARK   11  A    between atoms: _26  and  _27
REMARK   12  A    between atoms: _26  and  _29
REMARK   13  A    between atoms: _29  and  _30
REMARK   14  A    between atoms: _33  and  _35
REMARK   15  A    between atoms: _35  and  _36
REMARK   16  A    between atoms: _35  and  _38
REMARK   17  A    between atoms: _38  and  _39
REMARK   18  A    between atoms: _39  and  _40
REMARK   19  A    between atoms: _45  and  _47
REMARK   20  A    between atoms: _47  and  _48
REMARK   21  A    between atoms: _47  and  _50
REMARK   22  A    between atoms: _50  and  _51
REMARK   23  A    between atoms: _56  and  _57
REMARK   24  A    between atoms: _59  and  _61
REMARK   25  A    between atoms: _61  and  _62
REMARK   26  A    between atoms: _61  and  _64
REMARK   27  A    between atoms: _67  and  _69
REMARK   28  A    between atoms: _69  and  _70
REMARK   29  A    between atoms: _69  and  _72
REMARK   30  A    between atoms: _75  and  _77
REMARK   31  A    between atoms: _77  and  _78
REMARK   32  A    between atoms: _77  and  _80
REMARK   33  A    between atoms: _80  and  _81
REMARK   34  A    between atoms: _87  and  _89
REMARK   35  A    between atoms: _89  and  _90
REMARK   36  A    between atoms: _89  and  _92
REMARK   37  A    between atoms: _92  and  _93
REMARK   38  A    between atoms: _96  and  _98
REMARK   39  A    between atoms: _98  and  _99
REMARK   40  A    between atoms: _98  and  _101
REMARK   41  A    between atoms: _101  and  _102
REMARK   42  A    between atoms: _105  and  _107
REMARK   43  A    between atoms: _107  and  _108
REMARK   44  A    between atoms: _110  and  _112
REMARK   45  A    between atoms: _112  and  _113
REMARK   46  A    between atoms: _112  and  _115
REMARK   47  A    between atoms: _115  and  _116
REMARK   48  A    between atoms: _118  and  _120
REMARK   49  A    between atoms: _120  and  _121
REMARK   50  A    between atoms: _120  and  _123
REMARK   51  A    between atoms: _123  and  _124
REMARK   52  A    between atoms: _126  and  _128
REMARK   53  A    between atoms: _128  and  _129
REMARK   54  A    between atoms: _128  and  _131
REMARK   55  A    between atoms: _131  and  _132
REMARK   56  A    between atoms: _142  and  _144
REMARK   57  A    between atoms: _144  and  _145
REMARK   58  A    between atoms: _144  and  _147
REMARK   59  A    between atoms: _147  and  _148
REMARK   60  A    between atoms: _153  and  _155
REMARK   61  A    between atoms: _155  and  _156
REMARK   62  A    between atoms: _155  and  _158
REMARK   63  A    between atoms: _158  and  _159
REMARK   64  A    between atoms: _162  and  _164
REMARK   65  A    between atoms: _164  and  _165
REMARK   66  A    between atoms: _164  and  _167
REMARK   67  A    between atoms: _167  and  _168
REMARK   68  A    between atoms: _168  and  _169
REMARK   69  A    between atoms: _169  and  _170
REMARK   70  A    between atoms: _179  and  _181
REMARK   71  A    between atoms: _181  and  _182
REMARK   72  A    between atoms: _181  and  _184
REMARK   73  A    between atoms: _184  and  _185
REMARK   74  A    between atoms: _190  and  _191
REMARK   75  A    between atoms: _193  and  _195
REMARK   76  A    between atoms: _195  and  _196
REMARK   77  A    between atoms: _195  and  _198
REMARK   78  A    between atoms: _198  and  _199
REMARK   79  A    between atoms: _201  and  _203
REMARK   80  A    between atoms: _203  and  _204
REMARK   81  A    between atoms: _203  and  _206
REMARK   82  A    between atoms: _206  and  _207
REMARK   83  A    between atoms: _210  and  _212
REMARK   84  A    between atoms: _212  and  _213
REMARK   85  A    between atoms: _215  and  _217
REMARK   86  A    between atoms: _217  and  _218
REMARK   87  A    between atoms: _217  and  _220
REMARK   88  A    between atoms: _220  and  _221
REMARK   89  A    between atoms: _224  and  _226
REMARK   90  A    between atoms: _226  and  _227
REMARK   91  A    between atoms: _226  and  _229
REMARK   92  A    between atoms: _232  and  _234
REMARK   93  A    between atoms: _234  and  _235
REMARK   94  A    between atoms: _238  and  _240
REMARK   95  A    between atoms: _240  and  _241
REMARK   96  A    between atoms: _240  and  _243
REMARK   97  A    between atoms: _243  and  _244
REMARK   98  A    between atoms: _248  and  _249
REMARK   99  A    between atoms: _254  and  _256
REMARK  100  A    between atoms: _256  and  _257
REMARK  101  A    between atoms: _256  and  _259
REMARK  102  A    between atoms: _259  and  _260
REMARK  103  A    between atoms: _266  and  _268
REMARK  104  A    between atoms: _268  and  _269
REMARK  105  A    between atoms: _268  and  _271
REMARK  106  A    between atoms: _271  and  _272
REMARK  107  A    between atoms: _272  and  _273
REMARK  108  A    between atoms: _275  and  _277
REMARK  109  A    between atoms: _277  and  _278
REMARK  110  A    between atoms: _277  and  _280
REMARK  111  A    between atoms: _280  and  _281
REMARK  112  A    between atoms: _284  and  _286
REMARK  113  A    between atoms: _286  and  _287
REMARK  114  A    between atoms: _290  and  _292
REMARK  115  A    between atoms: _292  and  _293
REMARK  116  A    between atoms: _292  and  _295
REMARK  117  A    between atoms: _295  and  _296
REMARK  118  A    between atoms: _296  and  _297
REMARK  119  A    between atoms: _300  and  _302
REMARK  120  A    between atoms: _302  and  _303
REMARK  121  A    between atoms: _302  and  _305
REMARK  122  A    between atoms: _305  and  _306
REMARK  123  A    between atoms: _312  and  _314
REMARK  124  A    between atoms: _314  and  _315
REMARK  125  A    between atoms: _317  and  _319
REMARK  126  A    between atoms: _319  and  _320
REMARK  127  A    between atoms: _319  and  _322
REMARK  128  A    between atoms: _325  and  _327
REMARK  129  A    between atoms: _327  and  _328
REMARK  130  A    between atoms: _327  and  _330
REMARK  131  A    between atoms: _333  and  _335
REMARK  132  A    between atoms: _335  and  _336
REMARK  133  A    between atoms: _335  and  _338
REMARK  134  A    between atoms: _338  and  _339
REMARK  135  A    between atoms: _339  and  _340
REMARK  136  A    between atoms: _342  and  _344
REMARK  137  A    between atoms: _344  and  _345
REMARK  138  A    between atoms: _344  and  _347
REMARK  139  A    between atoms: _347  and  _348
REMARK  140  A    between atoms: _348  and  _349
REMARK  141  A    between atoms: _354  and  _356
REMARK  142  A    between atoms: _356  and  _357
REMARK  143  A    between atoms: _356  and  _359
REMARK  144  A    between atoms: _362  and  _364
REMARK  145  A    between atoms: _364  and  _365
REMARK  146  A    between atoms: _364  and  _367
REMARK  147  A    between atoms: _367  and  _368
REMARK  148  A    between atoms: _378  and  _380
REMARK  149  A    between atoms: _380  and  _381
REMARK  150  A    between atoms: _380  and  _383
REMARK  151  A    between atoms: _383  and  _384
REMARK  152  A    between atoms: _387  and  _389
REMARK  153  A    between atoms: _389  and  _390
REMARK  154  A    between atoms: _389  and  _392
REMARK  155  A    between atoms: _395  and  _397
REMARK  156  A    between atoms: _397  and  _398
REMARK  157  A    between atoms: _397  and  _400
REMARK  158  A    between atoms: _400  and  _401
REMARK  159  A    between atoms: _404  and  _406
REMARK  160  A    between atoms: _406  and  _407
REMARK  161  A    between atoms: _406  and  _409
REMARK  162  A    between atoms: _409  and  _410
REMARK  163  A    between atoms: _413  and  _415
REMARK  164  A    between atoms: _415  and  _416
REMARK  165  A    between atoms: _418  and  _420
REMARK  166  A    between atoms: _420  and  _421
REMARK  167  A    between atoms: _424  and  _426
REMARK  168  A    between atoms: _426  and  _427
REMARK  169  A    between atoms: _426  and  _429
REMARK  170  A    between atoms: _429  and  _430
REMARK  171  A    between atoms: _432  and  _434
REMARK  172  A    between atoms: _434  and  _435
REMARK  173  A    between atoms: _434  and  _437
REMARK  174  A    between atoms: _437  and  _438
REMARK  175  A    between atoms: _443  and  _444
REMARK  176  A    between atoms: _446  and  _448
REMARK  177  A    between atoms: _448  and  _449
REMARK  178  A    between atoms: _448  and  _451
REMARK  179  A    between atoms: _451  and  _452
REMARK  180  A    between atoms: _455  and  _457
REMARK  181  A    between atoms: _457  and  _458
REMARK  182  A    between atoms: _457  and  _460
REMARK  183  A    between atoms: _460  and  _461
REMARK  184  A    between atoms: _463  and  _465
REMARK  185  A    between atoms: _465  and  _466
REMARK  186  A    between atoms: _468  and  _470
REMARK  187  A    between atoms: _470  and  _471
REMARK  188  A    between atoms: _470  and  _473
REMARK  189  A    between atoms: _473  and  _474
REMARK  190  A    between atoms: _480  and  _482
REMARK  191  A    between atoms: _482  and  _483
REMARK  192  A    between atoms: _482  and  _485
REMARK  193  A    between atoms: _485  and  _486
REMARK  194  A    between atoms: _489  and  _491
REMARK  195  A    between atoms: _491  and  _492
REMARK  196  A    between atoms: _491  and  _494
REMARK  197  A    between atoms: _494  and  _495
REMARK  198  A    between atoms: _501  and  _503
REMARK  199  A    between atoms: _503  and  _504
REMARK  200  A    between atoms: _503  and  _506
REMARK  201  A    between atoms: _506  and  _507
REMARK  202  A    between atoms: _510  and  _512
REMARK  203  A    between atoms: _512  and  _513
REMARK  204  A    between atoms: _512  and  _515
REMARK  205  A    between atoms: _515  and  _516
REMARK  206  A    between atoms: _519  and  _521
REMARK  207  A    between atoms: _521  and  _522
REMARK  208  A    between atoms: _525  and  _527
REMARK  209  A    between atoms: _527  and  _528
REMARK  210  A    between atoms: _527  and  _530
REMARK  211  A    between atoms: _530  and  _531
REMARK  212  A    between atoms: _534  and  _536
REMARK  213  A    between atoms: _536  and  _537
REMARK  214  A    between atoms: _536  and  _539
REMARK  215  A    between atoms: _539  and  _540
REMARK  216  A    between atoms: _545  and  _547
REMARK  217  A    between atoms: _547  and  _548
REMARK  218  A    between atoms: _551  and  _553
REMARK  219  A    between atoms: _553  and  _554
REMARK  220  A    between atoms: _553  and  _556
REMARK  221  A    between atoms: _556  and  _557
REMARK  222  A    between atoms: _557  and  _558
REMARK  223  A    between atoms: _560  and  _562
REMARK  224  A    between atoms: _562  and  _563
REMARK  225  A    between atoms: _562  and  _565
REMARK  226  A    between atoms: _565  and  _566
REMARK  227  A    between atoms: _569  and  _571
REMARK  228  A    between atoms: _571  and  _572
REMARK  229  A    between atoms: _571  and  _574
REMARK  230  A    between atoms: _574  and  _575
REMARK  231  A    between atoms: _579  and  _580
REMARK  232  A    between atoms: _585  and  _587
REMARK  233  A    between atoms: _587  and  _588
REMARK  234  A    between atoms: _587  and  _590
REMARK  235  A    between atoms: _590  and  _591
REMARK  236  A    between atoms: _594  and  _596
REMARK  237  A    between atoms: _596  and  _597
REMARK  238  A    between atoms: _599  and  _601
REMARK  239  A    between atoms: _601  and  _602
REMARK  240  A    between atoms: _601  and  _604
REMARK  241  A    between atoms: _604  and  _605
REMARK  242  A    between atoms: _608  and  _610
REMARK  243  A    between atoms: _610  and  _611
REMARK  244  A    between atoms: _610  and  _613
REMARK  245  A    between atoms: _613  and  _614
REMARK  246  A    between atoms: _624  and  _626
REMARK  247  A    between atoms: _626  and  _627
REMARK  248  A    between atoms: _630  and  _632
REMARK  249  A    between atoms: _632  and  _633
REMARK  250  A    between atoms: _632  and  _635
REMARK  251  A    between atoms: _635  and  _636
REMARK  252  A    between atoms: _639  and  _641
REMARK  253  A    between atoms: _641  and  _642
REMARK  254  A    between atoms: _644  and  _646
REMARK  255  A    between atoms: _646  and  _647
REMARK                            x       y       z     vdW  Elec       q    Type
REMARK                         _______ _______ _______ _____ _____    ______ ____
ROOT
ATOM      1  C   TRP A   2     -12.166   2.403 -13.974  0.00  0.00    +0.241 C 
ATOM      2  O   TRP A   2     -13.143   3.031 -13.563  0.00  0.00    -0.273 OA
ATOM      3  N   ALA A   3     -10.913   2.816 -13.786  0.00  0.00    -0.297 N 
ATOM      4  H   ALA A   3     -10.132   2.189 -14.065  0.00  0.00    +0.150 HD
ENDROOT
BRANCH   3   5
ATOM      5  CA  ALA A   3     -10.595   4.125 -13.199  0.00  0.00    +0.149 C 
ATOM      6  CB  ALA A   3      -9.698   3.971 -12.041  0.00  0.00    +0.031 C 
BRANCH   5   7
ATOM      7  C   ALA A   3      -9.876   4.892 -14.261  0.00  0.00    +0.241 C 
ATOM      8  N   LEU A   4     -10.269   6.144 -14.521  0.00  0.00    -0.297 N 
ATOM      9  H   LEU A   4     -11.137   6.518 -14.088  0.00  0.00    +0.150 HD
ATOM     10  O   ALA A   3      -8.979   4.328 -14.869  0.00  0.00    -0.273 OA
BRANCH   8  11
ATOM     11  CA  LEU A   4      -9.478   6.982 -15.413  0.00  0.00    +0.149 C 
BRANCH  11  12
ATOM     12  C   LEU A   4      -8.717   7.968 -14.554  0.00  0.00    +0.241 C 
ATOM     13  O   LEU A   4      -9.285   8.990 -14.075  0.00  0.00    -0.273 OA
ATOM     14  N   GLY A   5      -7.429   7.644 -14.387  0.00  0.00    -0.295 N 
ATOM     15  H   GLY A   5      -7.085   6.793 -14.875  0.00  0.00    +0.150 HD
BRANCH  14  16
ATOM     16  CA  GLY A   5      -6.471   8.382 -13.581  0.00  0.00    +0.176 C 
BRANCH  16  17
ATOM     17  C   GLY A   5      -5.667   9.347 -14.418  0.00  0.00    +0.243 C 
ATOM     18  N   ALA A   6      -4.444   9.588 -13.962  0.00  0.00    -0.298 N 
ATOM     19  H   ALA A   6      -4.057   8.925 -13.260  0.00  0.00    +0.150 HD
ATOM     20  O   GLY A   5      -6.137   9.838 -15.446  0.00  0.00    -0.273 OA
BRANCH  18  21
ATOM     21  CA  ALA A   6      -3.589  10.720 -14.370  0.00  0.00    +0.137 C 
ATOM     22  CB  ALA A   6      -2.329  10.746 -13.499  0.00  0.00    +0.030 C 
BRANCH  21  23
ATOM     23  C   ALA A   6      -3.233  10.723 -15.871  0.00  0.00    +0.227 C 
ATOM     24  O   ALA A   6      -3.163  11.788 -16.508  0.00  0.00    -0.286 OA
ENDBRANCH  21  23
ENDBRANCH  18  21
ENDBRANCH  16  17
ENDBRANCH  14  16
ENDBRANCH  11  12
BRANCH  11  25
ATOM     25  CB  LEU A   4     -10.305   7.711 -16.497  0.00  0.00    +0.029 C 
BRANCH  25  26
ATOM     26  CG  LEU A   4     -11.319   6.899 -17.313  0.00  0.00    +0.002 C 
ATOM     27  CD2 LEU A   4     -10.667   5.762 -18.102  0.00  0.00    +0.000 C 
ATOM     28  CD1 LEU A   4     -12.128   7.787 -18.225  0.00  0.00    +0.000 C 
ENDBRANCH  25  26
ENDBRANCH  11  25
ENDBRANCH   8  11
ENDBRANCH   5   7
ENDBRANCH   3   5
BRANCH   1  29
ATOM     29  CA  TRP A   2     -12.349   1.117 -14.790  0.00  0.00    +0.153 C 
BRANCH  29  32
ATOM     30  C   THR A   1     -13.824  -0.198 -13.484  0.00  0.00    +0.241 C 
ATOM     31  O   THR A   1     -12.870  -0.788 -12.968  0.00  0.00    -0.274 OA
ATOM     32  N   TRP A   2     -13.672   0.593 -14.542  0.00  0.00    -0.297 N 
ATOM     33  H   TRP A   2     -14.472   0.825 -15.165  0.00  0.00    +0.150 HD
BRANCH  30  34
ATOM     34  CA  THR A   1     -15.227  -0.388 -12.920  0.00  0.00    +0.172 C 
BRANCH  34  35
ATOM     35  CB  THR A   1     -15.652   0.874 -12.052  0.00  0.00    +0.135 C 
ATOM     36  CG2 THR A   1     -15.007   0.891 -10.650  0.00  0.00    +0.034 C 
BRANCH  35  37
ATOM     37  OG1 THR A   1     -15.275   2.079 -12.718  0.00  0.00    -0.383 OA
ATOM     38  HG1 THR A   1     -14.294   2.090 -12.848  0.00  0.00    +0.210 HD
ENDBRANCH  35  37
ENDBRANCH  34  35
BRANCH  34  39
ATOM     39  N   THR A   1     -15.252  -1.650 -12.158  0.00  0.00    -0.236 NA
ATOM     40  H   THR A   1     -14.371  -1.978 -11.714  0.00  0.00    +0.142 HD
ENDBRANCH  34  39
ENDBRANCH  30  34
ENDBRANCH  29  32
BRANCH  29  41
ATOM     41  CB  TRP A   2     -12.166   1.510 -16.234  0.00  0.00    +0.057 C 
BRANCH  41  42
ATOM     42  CG  TRP A   2     -12.429   0.528 -17.323  0.00  0.00    -0.002 A 
ATOM     43  CD1 TRP A   2     -13.616  -0.060 -17.642  0.00  0.00    +0.068 A 
ATOM     44  NE1 TRP A   2     -13.477  -0.818 -18.774  0.00  0.00    -0.352 N 
ATOM     45  HE1 TRP A   2     -14.229  -1.382 -19.219  0.00  0.00    +0.166 HD
ATOM     46  CE2 TRP A   2     -12.184  -0.713 -19.226  0.00  0.00    +0.056 A 
ATOM     47  CZ2 TRP A   2     -11.552  -1.311 -20.326  0.00  0.00    +0.017 A 
ATOM     48  CH2 TRP A   2     -10.222  -1.027 -20.522  0.00  0.00    +0.001 A 
ATOM     49  CZ3 TRP A   2      -9.512  -0.165 -19.646  0.00  0.00    +0.000 A 
ATOM     50  CE3 TRP A   2     -10.136   0.418 -18.566  0.00  0.00    +0.001 A 
ATOM     51  CD2 TRP A   2     -11.501   0.151 -18.343  0.00  0.00    +0.013 A 
ENDBRANCH  41  42
ENDBRANCH  29  41
ENDBRANCH   1  29
TORSDOF 18
REMARK  Name = ../refined-set-2016/3d91/3d91_pocket.pdb
REMARK  255 active torsions:
REMARK  status: ('A' for Active; 'I' for Inactive)
REMARK    1  A    between atoms: _1  and  _3
REMARK    2  A    between atoms: _3  and  _4
REMARK    3  A    between atoms: _3  and  _6
REMARK    4  A    between atoms: _6  and  _7
REMARK    5  A    between atoms: _12  and  _13
REMARK    6  A    between atoms: _15  and  _17
REMARK    7  A    between atoms: _17  and  _18
REMARK    8  A    between atoms: _17  and  _20
REMARK    9  A    between atoms: _20  and  _21
REMARK   10  A    between atoms: _24  and  _26
REMARK   11  A    between atoms: _26  and  _27
REMARK   12  A    between atoms: _26  and  _29
REMARK   13  A    between atoms: _29  and  _30
REMARK   14  A    between atoms: _33  and  _35
REMARK   15  A    between atoms: _35  and  _36
REMARK   16  A    between atoms: _35  and  _38
REMARK   17  A    between atoms: _38  and  _39
REMARK   18  A    between atoms: _39  and  _40
REMARK   19  A    between atoms: _45  and  _47
REMARK   20  A    between atoms: _47  and  _48
REMARK   21  A    between atoms: _47  and  _50
REMARK   22  A    between atoms: _50  and  _51
REMARK   23  A    between atoms: _56  and  _57
REMARK   24  A    between atoms: _59  and  _61
REMARK   25  A    between atoms: _61  and  _62
REMARK   26  A    between atoms: _61  and  _64
REMARK   27  A    between atoms: _67  and  _69
REMARK   28  A    between atoms: _69  and  _70
REMARK   29  A    between atoms: _69  and  _72
REMARK   30  A    between atoms: _75  and  _77
REMARK   31  A    between atoms: _77  and  _78
REMARK   32  A    between atoms: _77  and  _80
REMARK   33  A    between atoms: _80  and  _81
REMARK   34  A    between atoms: _87  and  _89
REMARK   35  A    between atoms: _89  and  _90
REMARK   36  A    between atoms: _89  and  _92
REMARK   37  A    between atoms: _92  and  _93
REMARK   38  A    between atoms: _96  and  _98
REMARK   39  A    between atoms: _98  and  _99
REMARK   40  A    between atoms: _98  and  _101
REMARK   41  A    between atoms: _101  and  _102
REMARK   42  A    between atoms: _105  and  _107
REMARK   43  A    between atoms: _107  and  _108
REMARK   44  A    between atoms: _110  and  _112
REMARK   45  A    between atoms: _112  and  _113
REMARK   46  A    between atoms: _112  and  _115
REMARK   47  A    between atoms: _115  and  _116
REMARK   48  A    between atoms: _118  and  _120
REMARK   49  A    between atoms: _120  and  _121
REMARK   50  A    between atoms: _120  and  _123
REMARK   51  A    between atoms: _123  and  _124
REMARK   52  A    between atoms: _126  and  _128
REMARK   53  A    between atoms: _128  and  _129
REMARK   54  A    between atoms: _128  and  _131
REMARK   55  A    between atoms: _131  and  _132
REMARK   56  A    between atoms: _142  and  _144
REMARK   57  A    between atoms: _144  and  _145
REMARK   58  A    between atoms: _144  and  _147
REMARK   59  A    between atoms: _147  and  _148
REMARK   60  A    between atoms: _153  and  _155
REMARK   61  A    between atoms: _155  and  _156
REMARK   62  A    between atoms: _155  and  _158
REMARK   63  A    between atoms: _158  and  _159
REMARK   64  A    between atoms: _162  and  _164
REMARK   65  A    between atoms: _164  and  _165
REMARK   66  A    between atoms: _164  and  _167
REMARK   67  A    between atoms: _167  and  _168
REMARK   68  A    between atoms: _168  and  _169
REMARK   69  A    between atoms: _169  and  _170
REMARK   70  A    between atoms: _179  and  _181
REMARK   71  A    between atoms: _181  and  _182
REMARK   72  A    between atoms: _181  and  _184
REMARK   73  A    between atoms: _184  and  _185
REMARK   74  A    between atoms: _190  and  _191
REMARK   75  A    between atoms: _193  and  _195
REMARK   76  A    between atoms: _195  and  _196
REMARK   77  A    between atoms: _195  and  _198
REMARK   78  A    between atoms: _198  and  _199
REMARK   79  A    between atoms: _201  and  _203
REMARK   80  A    between atoms: _203  and  _204
REMARK   81  A    between atoms: _203  and  _206
REMARK   82  A    between atoms: _206  and  _207
REMARK   83  A    between atoms: _210  and  _212
REMARK   84  A    between atoms: _212  and  _213
REMARK   85  A    between atoms: _215  and  _217
REMARK   86  A    between atoms: _217  and  _218
REMARK   87  A    between atoms: _217  and  _220
REMARK   88  A    between atoms: _220  and  _221
REMARK   89  A    between atoms: _224  and  _226
REMARK   90  A    between atoms: _226  and  _227
REMARK   91  A    between atoms: _226  and  _229
REMARK   92  A    between atoms: _232  and  _234
REMARK   93  A    between atoms: _234  and  _235
REMARK   94  A    between atoms: _238  and  _240
REMARK   95  A    between atoms: _240  and  _241
REMARK   96  A    between atoms: _240  and  _243
REMARK   97  A    between atoms: _243  and  _244
REMARK   98  A    between atoms: _248  and  _249
REMARK   99  A    between atoms: _254  and  _256
REMARK  100  A    between atoms: _256  and  _257
REMARK  101  A    between atoms: _256  and  _259
REMARK  102  A    between atoms: _259  and  _260
REMARK  103  A    between atoms: _266  and  _268
REMARK  104  A    between atoms: _268  and  _269
REMARK  105  A    between atoms: _268  and  _271
REMARK  106  A    between atoms: _271  and  _272
REMARK  107  A    between atoms: _272  and  _273
REMARK  108  A    between atoms: _275  and  _277
REMARK  109  A    between atoms: _277  and  _278
REMARK  110  A    between atoms: _277  and  _280
REMARK  111  A    between atoms: _280  and  _281
REMARK  112  A    between atoms: _284  and  _286
REMARK  113  A    between atoms: _286  and  _287
REMARK  114  A    between atoms: _290  and  _292
REMARK  115  A    between atoms: _292  and  _293
REMARK  116  A    between atoms: _292  and  _295
REMARK  117  A    between atoms: _295  and  _296
REMARK  118  A    between atoms: _296  and  _297
REMARK  119  A    between atoms: _300  and  _302
REMARK  120  A    between atoms: _302  and  _303
REMARK  121  A    between atoms: _302  and  _305
REMARK  122  A    between atoms: _305  and  _306
REMARK  123  A    between atoms: _312  and  _314
REMARK  124  A    between atoms: _314  and  _315
REMARK  125  A    between atoms: _317  and  _319
REMARK  126  A    between atoms: _319  and  _320
REMARK  127  A    between atoms: _319  and  _322
REMARK  128  A    between atoms: _325  and  _327
REMARK  129  A    between atoms: _327  and  _328
REMARK  130  A    between atoms: _327  and  _330
REMARK  131  A    between atoms: _333  and  _335
REMARK  132  A    between atoms: _335  and  _336
REMARK  133  A    between atoms: _335  and  _338
REMARK  134  A    between atoms: _338  and  _339
REMARK  135  A    between atoms: _339  and  _340
REMARK  136  A    between atoms: _342  and  _344
REMARK  137  A    between atoms: _344  and  _345
REMARK  138  A    between atoms: _344  and  _347
REMARK  139  A    between atoms: _347  and  _348
REMARK  140  A    between atoms: _348  and  _349
REMARK  141  A    between atoms: _354  and  _356
REMARK  142  A    between atoms: _356  and  _357
REMARK  143  A    between atoms: _356  and  _359
REMARK  144  A    between atoms: _362  and  _364
REMARK  145  A    between atoms: _364  and  _365
REMARK  146  A    between atoms: _364  and  _367
REMARK  147  A    between atoms: _367  and  _368
REMARK  148  A    between atoms: _378  and  _380
REMARK  149  A    between atoms: _380  and  _381
REMARK  150  A    between atoms: _380  and  _383
REMARK  151  A    between atoms: _383  and  _384
REMARK  152  A    between atoms: _387  and  _389
REMARK  153  A    between atoms: _389  and  _390
REMARK  154  A    between atoms: _389  and  _392
REMARK  155  A    between atoms: _395  and  _397
REMARK  156  A    between atoms: _397  and  _398
REMARK  157  A    between atoms: _397  and  _400
REMARK  158  A    between atoms: _400  and  _401
REMARK  159  A    between atoms: _404  and  _406
REMARK  160  A    between atoms: _406  and  _407
REMARK  161  A    between atoms: _406  and  _409
REMARK  162  A    between atoms: _409  and  _410
REMARK  163  A    between atoms: _413  and  _415
REMARK  164  A    between atoms: _415  and  _416
REMARK  165  A    between atoms: _418  and  _420
REMARK  166  A    between atoms: _420  and  _421
REMARK  167  A    between atoms: _424  and  _426
REMARK  168  A    between atoms: _426  and  _427
REMARK  169  A    between atoms: _426  and  _429
REMARK  170  A    between atoms: _429  and  _430
REMARK  171  A    between atoms: _432  and  _434
REMARK  172  A    between atoms: _434  and  _435
REMARK  173  A    between atoms: _434  and  _437
REMARK  174  A    between atoms: _437  and  _438
REMARK  175  A    between atoms: _443  and  _444
REMARK  176  A    between atoms: _446  and  _448
REMARK  177  A    between atoms: _448  and  _449
REMARK  178  A    between atoms: _448  and  _451
REMARK  179  A    between atoms: _451  and  _452
REMARK  180  A    between atoms: _455  and  _457
REMARK  181  A    between atoms: _457  and  _458
REMARK  182  A    between atoms: _457  and  _460
REMARK  183  A    between atoms: _460  and  _461
REMARK  184  A    between atoms: _463  and  _465
REMARK  185  A    between atoms: _465  and  _466
REMARK  186  A    between atoms: _468  and  _470
REMARK  187  A    between atoms: _470  and  _471
REMARK  188  A    between atoms: _470  and  _473
REMARK  189  A    between atoms: _473  and  _474
REMARK  190  A    between atoms: _480  and  _482
REMARK  191  A    between atoms: _482  and  _483
REMARK  192  A    between atoms: _482  and  _485
REMARK  193  A    between atoms: _485  and  _486
REMARK  194  A    between atoms: _489  and  _491
REMARK  195  A    between atoms: _491  and  _492
REMARK  196  A    between atoms: _491  and  _494
REMARK  197  A    between atoms: _494  and  _495
REMARK  198  A    between atoms: _501  and  _503
REMARK  199  A    between atoms: _503  and  _504
REMARK  200  A    between atoms: _503  and  _506
REMARK  201  A    between atoms: _506  and  _507
REMARK  202  A    between atoms: _510  and  _512
REMARK  203  A    between atoms: _512  and  _513
REMARK  204  A    between atoms: _512  and  _515
REMARK  205  A    between atoms: _515  and  _516
REMARK  206  A    between atoms: _519  and  _521
REMARK  207  A    between atoms: _521  and  _522
REMARK  208  A    between atoms: _525  and  _527
REMARK  209  A    between atoms: _527  and  _528
REMARK  210  A    between atoms: _527  and  _530
REMARK  211  A    between atoms: _530  and  _531
REMARK  212  A    between atoms: _534  and  _536
REMARK  213  A    between atoms: _536  and  _537
REMARK  214  A    between atoms: _536  and  _539
REMARK  215  A    between atoms: _539  and  _540
REMARK  216  A    between atoms: _545  and  _547
REMARK  217  A    between atoms: _547  and  _548
REMARK  218  A    between atoms: _551  and  _553
REMARK  219  A    between atoms: _553  and  _554
REMARK  220  A    between atoms: _553  and  _556
REMARK  221  A    between atoms: _556  and  _557
REMARK  222  A    between atoms: _557  and  _558
REMARK  223  A    between atoms: _560  and  _562
REMARK  224  A    between atoms: _562  and  _563
REMARK  225  A    between atoms: _562  and  _565
REMARK  226  A    between atoms: _565  and  _566
REMARK  227  A    between atoms: _569  and  _571
REMARK  228  A    between atoms: _571  and  _572
REMARK  229  A    between atoms: _571  and  _574
REMARK  230  A    between atoms: _574  and  _575
REMARK  231  A    between atoms: _579  and  _580
REMARK  232  A    between atoms: _585  and  _587
REMARK  233  A    between atoms: _587  and  _588
REMARK  234  A    between atoms: _587  and  _590
REMARK  235  A    between atoms: _590  and  _591
REMARK  236  A    between atoms: _594  and  _596
REMARK  237  A    between atoms: _596  and  _597
REMARK  238  A    between atoms: _599  and  _601
REMARK  239  A    between atoms: _601  and  _602
REMARK  240  A    between atoms: _601  and  _604
REMARK  241  A    between atoms: _604  and  _605
REMARK  242  A    between atoms: _608  and  _610
REMARK  243  A    between atoms: _610  and  _611
REMARK  244  A    between atoms: _610  and  _613
REMARK  245  A    between atoms: _613  and  _614
REMARK  246  A    between atoms: _624  and  _626
REMARK  247  A    between atoms: _626  and  _627
REMARK  248  A    between atoms: _630  and  _632
REMARK  249  A    between atoms: _632  and  _633
REMARK  250  A    between atoms: _632  and  _635
REMARK  251  A    between atoms: _635  and  _636
REMARK  252  A    between atoms: _639  and  _641
REMARK  253  A    between atoms: _641  and  _642
REMARK  254  A    between atoms: _644  and  _646
REMARK  255  A    between atoms: _646  and  _647
REMARK                            x       y       z     vdW  Elec       q    Type
REMARK                         _______ _______ _______ _____ _____    ______ ____
ROOT
ATOM      1  O   HOH     1       0.594   8.255 -14.947  0.00  0.00    +0.000 OA
ENDROOT
TORSDOF 0
REMARK  Name = ../refined-set-2016/3d91/3d91_pocket.pdb
REMARK  255 active torsions:
REMARK  status: ('A' for Active; 'I' for Inactive)
REMARK    1  A    between atoms: _1  and  _3
REMARK    2  A    between atoms: _3  and  _4
REMARK    3  A    between atoms: _3  and  _6
REMARK    4  A    between atoms: _6  and  _7
REMARK    5  A    between atoms: _12  and  _13
REMARK    6  A    between atoms: _15  and  _17
REMARK    7  A    between atoms: _17  and  _18
REMARK    8  A    between atoms: _17  and  _20
REMARK    9  A    between atoms: _20  and  _21
REMARK   10  A    between atoms: _24  and  _26
REMARK   11  A    between atoms: _26  and  _27
REMARK   12  A    between atoms: _26  and  _29
REMARK   13  A    between atoms: _29  and  _30
REMARK   14  A    between atoms: _33  and  _35
REMARK   15  A    between atoms: _35  and  _36
REMARK   16  A    between atoms: _35  and  _38
REMARK   17  A    between atoms: _38  and  _39
REMARK   18  A    between atoms: _39  and  _40
REMARK   19  A    between atoms: _45  and  _47
REMARK   20  A    between atoms: _47  and  _48
REMARK   21  A    between atoms: _47  and  _50
REMARK   22  A    between atoms: _50  and  _51
REMARK   23  A    between atoms: _56  and  _57
REMARK   24  A    between atoms: _59  and  _61
REMARK   25  A    between atoms: _61  and  _62
REMARK   26  A    between atoms: _61  and  _64
REMARK   27  A    between atoms: _67  and  _69
REMARK   28  A    between atoms: _69  and  _70
REMARK   29  A    between atoms: _69  and  _72
REMARK   30  A    between atoms: _75  and  _77
REMARK   31  A    between atoms: _77  and  _78
REMARK   32  A    between atoms: _77  and  _80
REMARK   33  A    between atoms: _80  and  _81
REMARK   34  A    between atoms: _87  and  _89
REMARK   35  A    between atoms: _89  and  _90
REMARK   36  A    between atoms: _89  and  _92
REMARK   37  A    between atoms: _92  and  _93
REMARK   38  A    between atoms: _96  and  _98
REMARK   39  A    between atoms: _98  and  _99
REMARK   40  A    between atoms: _98  and  _101
REMARK   41  A    between atoms: _101  and  _102
REMARK   42  A    between atoms: _105  and  _107
REMARK   43  A    between atoms: _107  and  _108
REMARK   44  A    between atoms: _110  and  _112
REMARK   45  A    between atoms: _112  and  _113
REMARK   46  A    between atoms: _112  and  _115
REMARK   47  A    between atoms: _115  and  _116
REMARK   48  A    between atoms: _118  and  _120
REMARK   49  A    between atoms: _120  and  _121
REMARK   50  A    between atoms: _120  and  _123
REMARK   51  A    between atoms: _123  and  _124
REMARK   52  A    between atoms: _126  and  _128
REMARK   53  A    between atoms: _128  and  _129
REMARK   54  A    between atoms: _128  and  _131
REMARK   55  A    between atoms: _131  and  _132
REMARK   56  A    between atoms: _142  and  _144
REMARK   57  A    between atoms: _144  and  _145
REMARK   58  A    between atoms: _144  and  _147
REMARK   59  A    between atoms: _147  and  _148
REMARK   60  A    between atoms: _153  and  _155
REMARK   61  A    between atoms: _155  and  _156
REMARK   62  A    between atoms: _155  and  _158
REMARK   63  A    between atoms: _158  and  _159
REMARK   64  A    between atoms: _162  and  _164
REMARK   65  A    between atoms: _164  and  _165
REMARK   66  A    between atoms: _164  and  _167
REMARK   67  A    between atoms: _167  and  _168
REMARK   68  A    between atoms: _168  and  _169
REMARK   69  A    between atoms: _169  and  _170
REMARK   70  A    between atoms: _179  and  _181
REMARK   71  A    between atoms: _181  and  _182
REMARK   72  A    between atoms: _181  and  _184
REMARK   73  A    between atoms: _184  and  _185
REMARK   74  A    between atoms: _190  and  _191
REMARK   75  A    between atoms: _193  and  _195
REMARK   76  A    between atoms: _195  and  _196
REMARK   77  A    between atoms: _195  and  _198
REMARK   78  A    between atoms: _198  and  _199
REMARK   79  A    between atoms: _201  and  _203
REMARK   80  A    between atoms: _203  and  _204
REMARK   81  A    between atoms: _203  and  _206
REMARK   82  A    between atoms: _206  and  _207
REMARK   83  A    between atoms: _210  and  _212
REMARK   84  A    between atoms: _212  and  _213
REMARK   85  A    between atoms: _215  and  _217
REMARK   86  A    between atoms: _217  and  _218
REMARK   87  A    between atoms: _217  and  _220
REMARK   88  A    between atoms: _220  and  _221
REMARK   89  A    between atoms: _224  and  _226
REMARK   90  A    between atoms: _226  and  _227
REMARK   91  A    between atoms: _226  and  _229
REMARK   92  A    between atoms: _232  and  _234
REMARK   93  A    between atoms: _234  and  _235
REMARK   94  A    between atoms: _238  and  _240
REMARK   95  A    between atoms: _240  and  _241
REMARK   96  A    between atoms: _240  and  _243
REMARK   97  A    between atoms: _243  and  _244
REMARK   98  A    between atoms: _248  and  _249
REMARK   99  A    between atoms: _254  and  _256
REMARK  100  A    between atoms: _256  and  _257
REMARK  101  A    between atoms: _256  and  _259
REMARK  102  A    between atoms: _259  and  _260
REMARK  103  A    between atoms: _266  and  _268
REMARK  104  A    between atoms: _268  and  _269
REMARK  105  A    between atoms: _268  and  _271
REMARK  106  A    between atoms: _271  and  _272
REMARK  107  A    between atoms: _272  and  _273
REMARK  108  A    between atoms: _275  and  _277
REMARK  109  A    between atoms: _277  and  _278
REMARK  110  A    between atoms: _277  and  _280
REMARK  111  A    between atoms: _280  and  _281
REMARK  112  A    between atoms: _284  and  _286
REMARK  113  A    between atoms: _286  and  _287
REMARK  114  A    between atoms: _290  and  _292
REMARK  115  A    between atoms: _292  and  _293
REMARK  116  A    between atoms: _292  and  _295
REMARK  117  A    between atoms: _295  and  _296
REMARK  118  A    between atoms: _296  and  _297
REMARK  119  A    between atoms: _300  and  _302
REMARK  120  A    between atoms: _302  and  _303
REMARK  121  A    between atoms: _302  and  _305
REMARK  122  A    between atoms: _305  and  _306
REMARK  123  A    between atoms: _312  and  _314
REMARK  124  A    between atoms: _314  and  _315
REMARK  125  A    between atoms: _317  and  _319
REMARK  126  A    between atoms: _319  and  _320
REMARK  127  A    between atoms: _319  and  _322
REMARK  128  A    between atoms: _325  and  _327
REMARK  129  A    between atoms: _327  and  _328
REMARK  130  A    between atoms: _327  and  _330
REMARK  131  A    between atoms: _333  and  _335
REMARK  132  A    between atoms: _335  and  _336
REMARK  133  A    between atoms: _335  and  _338
REMARK  134  A    between atoms: _338  and  _339
REMARK  135  A    between atoms: _339  and  _340
REMARK  136  A    between atoms: _342  and  _344
REMARK  137  A    between atoms: _344  and  _345
REMARK  138  A    between atoms: _344  and  _347
REMARK  139  A    between atoms: _347  and  _348
REMARK  140  A    between atoms: _348  and  _349
REMARK  141  A    between atoms: _354  and  _356
REMARK  142  A    between atoms: _356  and  _357
REMARK  143  A    between atoms: _356  and  _359
REMARK  144  A    between atoms: _362  and  _364
REMARK  145  A    between atoms: _364  and  _365
REMARK  146  A    between atoms: _364  and  _367
REMARK  147  A    between atoms: _367  and  _368
REMARK  148  A    between atoms: _378  and  _380
REMARK  149  A    between atoms: _380  and  _381
REMARK  150  A    between atoms: _380  and  _383
REMARK  151  A    between atoms: _383  and  _384
REMARK  152  A    between atoms: _387  and  _389
REMARK  153  A    between atoms: _389  and  _390
REMARK  154  A    between atoms: _389  and  _392
REMARK  155  A    between atoms: _395  and  _397
REMARK  156  A    between atoms: _397  and  _398
REMARK  157  A    between atoms: _397  and  _400
REMARK  158  A    between atoms: _400  and  _401
REMARK  159  A    between atoms: _404  and  _406
REMARK  160  A    between atoms: _406  and  _407
REMARK  161  A    between atoms: _406  and  _409
REMARK  162  A    between atoms: _409  and  _410
REMARK  163  A    between atoms: _413  and  _415
REMARK  164  A    between atoms: _415  and  _416
REMARK  165  A    between atoms: _418  and  _420
REMARK  166  A    between atoms: _420  and  _421
REMARK  167  A    between atoms: _424  and  _426
REMARK  168  A    between atoms: _426  and  _427
REMARK  169  A    between atoms: _426  and  _429
REMARK  170  A    between atoms: _429  and  _430
REMARK  171  A    between atoms: _432  and  _434
REMARK  172  A    between atoms: _434  and  _435
REMARK  173  A    between atoms: _434  and  _437
REMARK  174  A    between atoms: _437  and  _438
REMARK  175  A    between atoms: _443  and  _444
REMARK  176  A    between atoms: _446  and  _448
REMARK  177  A    between atoms: _448  and  _449
REMARK  178  A    between atoms: _448  and  _451
REMARK  179  A    between atoms: _451  and  _452
REMARK  180  A    between atoms: _455  and  _457
REMARK  181  A    between atoms: _457  and  _458
REMARK  182  A    between atoms: _457  and  _460
REMARK  183  A    between atoms: _460  and  _461
REMARK  184  A    between atoms: _463  and  _465
REMARK  185  A    between atoms: _465  and  _466
REMARK  186  A    between atoms: _468  and  _470
REMARK  187  A    between atoms: _470  and  _471
REMARK  188  A    between atoms: _470  and  _473
REMARK  189  A    between atoms: _473  and  _474
REMARK  190  A    between atoms: _480  and  _482
REMARK  191  A    between atoms: _482  and  _483
REMARK  192  A    between atoms: _482  and  _485
REMARK  193  A    between atoms: _485  and  _486
REMARK  194  A    between atoms: _489  and  _491
REMARK  195  A    between atoms: _491  and  _492
REMARK  196  A    between atoms: _491  and  _494
REMARK  197  A    between atoms: _494  and  _495
REMARK  198  A    between atoms: _501  and  _503
REMARK  199  A    between atoms: _503  and  _504
REMARK  200  A    between atoms: _503  and  _506
REMARK  201  A    between atoms: _506  and  _507
REMARK  202  A    between atoms: _510  and  _512
REMARK  203  A    between atoms: _512  and  _513
REMARK  204  A    between atoms: _512  and  _515
REMARK  205  A    between atoms: _515  and  _516
REMARK  206  A    between atoms: _519  and  _521
REMARK  207  A    between atoms: _521  and  _522
REMARK  208  A    between atoms: _525  and  _527
REMARK  209  A    between atoms: _527  and  _528
REMARK  210  A    between atoms: _527  and  _530
REMARK  211  A    between atoms: _530  and  _531
REMARK  212  A    between atoms: _534  and  _536
REMARK  213  A    between atoms: _536  and  _537
REMARK  214  A    between atoms: _536  and  _539
REMARK  215  A    between atoms: _539  and  _540
REMARK  216  A    between atoms: _545  and  _547
REMARK  217  A    between atoms: _547  and  _548
REMARK  218  A    between atoms: _551  and  _553
REMARK  219  A    between atoms: _553  and  _554
REMARK  220  A    between atoms: _553  and  _556
REMARK  221  A    between atoms: _556  and  _557
REMARK  222  A    between atoms: _557  and  _558
REMARK  223  A    between atoms: _560  and  _562
REMARK  224  A    between atoms: _562  and  _563
REMARK  225  A    between atoms: _562  and  _565
REMARK  226  A    between atoms: _565  and  _566
REMARK  227  A    between atoms: _569  and  _571
REMARK  228  A    between atoms: _571  and  _572
REMARK  229  A    between atoms: _571  and  _574
REMARK  230  A    between atoms: _574  and  _575
REMARK  231  A    between atoms: _579  and  _580
REMARK  232  A    between atoms: _585  and  _587
REMARK  233  A    between atoms: _587  and  _588
REMARK  234  A    between atoms: _587  and  _590
REMARK  235  A    between atoms: _590  and  _591
REMARK  236  A    between atoms: _594  and  _596
REMARK  237  A    between atoms: _596  and  _597
REMARK  238  A    between atoms: _599  and  _601
REMARK  239  A    between atoms: _601  and  _602
REMARK  240  A    between atoms: _601  and  _604
REMARK  241  A    between atoms: _604  and  _605
REMARK  242  A    between atoms: _608  and  _610
REMARK  243  A    between atoms: _610  and  _611
REMARK  244  A    between atoms: _610  and  _613
REMARK  245  A    between atoms: _613  and  _614
REMARK  246  A    between atoms: _624  and  _626
REMARK  247  A    between atoms: _626  and  _627
REMARK  248  A    between atoms: _630  and  _632
REMARK  249  A    between atoms: _632  and  _633
REMARK  250  A    between atoms: _632  and  _635
REMARK  251  A    between atoms: _635  and  _636
REMARK  252  A    between atoms: _639  and  _641
REMARK  253  A    between atoms: _641  and  _642
REMARK  254  A    between atoms: _644  and  _646
REMARK  255  A    between atoms: _646  and  _647
REMARK                            x       y       z     vdW  Elec       q    Type
REMARK                         _______ _______ _______ _____ _____    ______ ____
ROOT
ATOM      1  O   HOH     1     -15.811   9.521  -6.361  0.00  0.00    +0.000 OA
ENDROOT
TORSDOF 0
REMARK  Name = ../refined-set-2016/3d91/3d91_pocket.pdb
REMARK  255 active torsions:
REMARK  status: ('A' for Active; 'I' for Inactive)
REMARK    1  A    between atoms: _1  and  _3
REMARK    2  A    between atoms: _3  and  _4
REMARK    3  A    between atoms: _3  and  _6
REMARK    4  A    between atoms: _6  and  _7
REMARK    5  A    between atoms: _12  and  _13
REMARK    6  A    between atoms: _15  and  _17
REMARK    7  A    between atoms: _17  and  _18
REMARK    8  A    between atoms: _17  and  _20
REMARK    9  A    between atoms: _20  and  _21
REMARK   10  A    between atoms: _24  and  _26
REMARK   11  A    between atoms: _26  and  _27
REMARK   12  A    between atoms: _26  and  _29
REMARK   13  A    between atoms: _29  and  _30
REMARK   14  A    between atoms: _33  and  _35
REMARK   15  A    between atoms: _35  and  _36
REMARK   16  A    between atoms: _35  and  _38
REMARK   17  A    between atoms: _38  and  _39
REMARK   18  A    between atoms: _39  and  _40
REMARK   19  A    between atoms: _45  and  _47
REMARK   20  A    between atoms: _47  and  _48
REMARK   21  A    between atoms: _47  and  _50
REMARK   22  A    between atoms: _50  and  _51
REMARK   23  A    between atoms: _56  and  _57
REMARK   24  A    between atoms: _59  and  _61
REMARK   25  A    between atoms: _61  and  _62
REMARK   26  A    between atoms: _61  and  _64
REMARK   27  A    between atoms: _67  and  _69
REMARK   28  A    between atoms: _69  and  _70
REMARK   29  A    between atoms: _69  and  _72
REMARK   30  A    between atoms: _75  and  _77
REMARK   31  A    between atoms: _77  and  _78
REMARK   32  A    between atoms: _77  and  _80
REMARK   33  A    between atoms: _80  and  _81
REMARK   34  A    between atoms: _87  and  _89
REMARK   35  A    between atoms: _89  and  _90
REMARK   36  A    between atoms: _89  and  _92
REMARK   37  A    between atoms: _92  and  _93
REMARK   38  A    between atoms: _96  and  _98
REMARK   39  A    between atoms: _98  and  _99
REMARK   40  A    between atoms: _98  and  _101
REMARK   41  A    between atoms: _101  and  _102
REMARK   42  A    between atoms: _105  and  _107
REMARK   43  A    between atoms: _107  and  _108
REMARK   44  A    between atoms: _110  and  _112
REMARK   45  A    between atoms: _112  and  _113
REMARK   46  A    between atoms: _112  and  _115
REMARK   47  A    between atoms: _115  and  _116
REMARK   48  A    between atoms: _118  and  _120
REMARK   49  A    between atoms: _120  and  _121
REMARK   50  A    between atoms: _120  and  _123
REMARK   51  A    between atoms: _123  and  _124
REMARK   52  A    between atoms: _126  and  _128
REMARK   53  A    between atoms: _128  and  _129
REMARK   54  A    between atoms: _128  and  _131
REMARK   55  A    between atoms: _131  and  _132
REMARK   56  A    between atoms: _142  and  _144
REMARK   57  A    between atoms: _144  and  _145
REMARK   58  A    between atoms: _144  and  _147
REMARK   59  A    between atoms: _147  and  _148
REMARK   60  A    between atoms: _153  and  _155
REMARK   61  A    between atoms: _155  and  _156
REMARK   62  A    between atoms: _155  and  _158
REMARK   63  A    between atoms: _158  and  _159
REMARK   64  A    between atoms: _162  and  _164
REMARK   65  A    between atoms: _164  and  _165
REMARK   66  A    between atoms: _164  and  _167
REMARK   67  A    between atoms: _167  and  _168
REMARK   68  A    between atoms: _168  and  _169
REMARK   69  A    between atoms: _169  and  _170
REMARK   70  A    between atoms: _179  and  _181
REMARK   71  A    between atoms: _181  and  _182
REMARK   72  A    between atoms: _181  and  _184
REMARK   73  A    between atoms: _184  and  _185
REMARK   74  A    between atoms: _190  and  _191
REMARK   75  A    between atoms: _193  and  _195
REMARK   76  A    between atoms: _195  and  _196
REMARK   77  A    between atoms: _195  and  _198
REMARK   78  A    between atoms: _198  and  _199
REMARK   79  A    between atoms: _201  and  _203
REMARK   80  A    between atoms: _203  and  _204
REMARK   81  A    between atoms: _203  and  _206
REMARK   82  A    between atoms: _206  and  _207
REMARK   83  A    between atoms: _210  and  _212
REMARK   84  A    between atoms: _212  and  _213
REMARK   85  A    between atoms: _215  and  _217
REMARK   86  A    between atoms: _217  and  _218
REMARK   87  A    between atoms: _217  and  _220
REMARK   88  A    between atoms: _220  and  _221
REMARK   89  A    between atoms: _224  and  _226
REMARK   90  A    between atoms: _226  and  _227
REMARK   91  A    between atoms: _226  and  _229
REMARK   92  A    between atoms: _232  and  _234
REMARK   93  A    between atoms: _234  and  _235
REMARK   94  A    between atoms: _238  and  _240
REMARK   95  A    between atoms: _240  and  _241
REMARK   96  A    between atoms: _240  and  _243
REMARK   97  A    between atoms: _243  and  _244
REMARK   98  A    between atoms: _248  and  _249
REMARK   99  A    between atoms: _254  and  _256
REMARK  100  A    between atoms: _256  and  _257
REMARK  101  A    between atoms: _256  and  _259
REMARK  102  A    between atoms: _259  and  _260
REMARK  103  A    between atoms: _266  and  _268
REMARK  104  A    between atoms: _268  and  _269
REMARK  105  A    between atoms: _268  and  _271
REMARK  106  A    between atoms: _271  and  _272
REMARK  107  A    between atoms: _272  and  _273
REMARK  108  A    between atoms: _275  and  _277
REMARK  109  A    between atoms: _277  and  _278
REMARK  110  A    between atoms: _277  and  _280
REMARK  111  A    between atoms: _280  and  _281
REMARK  112  A    between atoms: _284  and  _286
REMARK  113  A    between atoms: _286  and  _287
REMARK  114  A    between atoms: _290  and  _292
REMARK  115  A    between atoms: _292  and  _293
REMARK  116  A    between atoms: _292  and  _295
REMARK  117  A    between atoms: _295  and  _296
REMARK  118  A    between atoms: _296  and  _297
REMARK  119  A    between atoms: _300  and  _302
REMARK  120  A    between atoms: _302  and  _303
REMARK  121  A    between atoms: _302  and  _305
REMARK  122  A    between atoms: _305  and  _306
REMARK  123  A    between atoms: _312  and  _314
REMARK  124  A    between atoms: _314  and  _315
REMARK  125  A    between atoms: _317  and  _319
REMARK  126  A    between atoms: _319  and  _320
REMARK  127  A    between atoms: _319  and  _322
REMARK  128  A    between atoms: _325  and  _327
REMARK  129  A    between atoms: _327  and  _328
REMARK  130  A    between atoms: _327  and  _330
REMARK  131  A    between atoms: _333  and  _335
REMARK  132  A    between atoms: _335  and  _336
REMARK  133  A    between atoms: _335  and  _338
REMARK  134  A    between atoms: _338  and  _339
REMARK  135  A    between atoms: _339  and  _340
REMARK  136  A    between atoms: _342  and  _344
REMARK  137  A    between atoms: _344  and  _345
REMARK  138  A    between atoms: _344  and  _347
REMARK  139  A    between atoms: _347  and  _348
REMARK  140  A    between atoms: _348  and  _349
REMARK  141  A    between atoms: _354  and  _356
REMARK  142  A    between atoms: _356  and  _357
REMARK  143  A    between atoms: _356  and  _359
REMARK  144  A    between atoms: _362  and  _364
REMARK  145  A    between atoms: _364  and  _365
REMARK  146  A    between atoms: _364  and  _367
REMARK  147  A    between atoms: _367  and  _368
REMARK  148  A    between atoms: _378  and  _380
REMARK  149  A    between atoms: _380  and  _381
REMARK  150  A    between atoms: _380  and  _383
REMARK  151  A    between atoms: _383  and  _384
REMARK  152  A    between atoms: _387  and  _389
REMARK  153  A    between atoms: _389  and  _390
REMARK  154  A    between atoms: _389  and  _392
REMARK  155  A    between atoms: _395  and  _397
REMARK  156  A    between atoms: _397  and  _398
REMARK  157  A    between atoms: _397  and  _400
REMARK  158  A    between atoms: _400  and  _401
REMARK  159  A    between atoms: _404  and  _406
REMARK  160  A    between atoms: _406  and  _407
REMARK  161  A    between atoms: _406  and  _409
REMARK  162  A    between atoms: _409  and  _410
REMARK  163  A    between atoms: _413  and  _415
REMARK  164  A    between atoms: _415  and  _416
REMARK  165  A    between atoms: _418  and  _420
REMARK  166  A    between atoms: _420  and  _421
REMARK  167  A    between atoms: _424  and  _426
REMARK  168  A    between atoms: _426  and  _427
REMARK  169  A    between atoms: _426  and  _429
REMARK  170  A    between atoms: _429  and  _430
REMARK  171  A    between atoms: _432  and  _434
REMARK  172  A    between atoms: _434  and  _435
REMARK  173  A    between atoms: _434  and  _437
REMARK  174  A    between atoms: _437  and  _438
REMARK  175  A    between atoms: _443  and  _444
REMARK  176  A    between atoms: _446  and  _448
REMARK  177  A    between atoms: _448  and  _449
REMARK  178  A    between atoms: _448  and  _451
REMARK  179  A    between atoms: _451  and  _452
REMARK  180  A    between atoms: _455  and  _457
REMARK  181  A    between atoms: _457  and  _458
REMARK  182  A    between atoms: _457  and  _460
REMARK  183  A    between atoms: _460  and  _461
REMARK  184  A    between atoms: _463  and  _465
REMARK  185  A    between atoms: _465  and  _466
REMARK  186  A    between atoms: _468  and  _470
REMARK  187  A    between atoms: _470  and  _471
REMARK  188  A    between atoms: _470  and  _473
REMARK  189  A    between atoms: _473  and  _474
REMARK  190  A    between atoms: _480  and  _482
REMARK  191  A    between atoms: _482  and  _483
REMARK  192  A    between atoms: _482  and  _485
REMARK  193  A    between atoms: _485  and  _486
REMARK  194  A    between atoms: _489  and  _491
REMARK  195  A    between atoms: _491  and  _492
REMARK  196  A    between atoms: _491  and  _494
REMARK  197  A    between atoms: _494  and  _495
REMARK  198  A    between atoms: _501  and  _503
REMARK  199  A    between atoms: _503  and  _504
REMARK  200  A    between atoms: _503  and  _506
REMARK  201  A    between atoms: _506  and  _507
REMARK  202  A    between atoms: _510  and  _512
REMARK  203  A    between atoms: _512  and  _513
REMARK  204  A    between atoms: _512  and  _515
REMARK  205  A    between atoms: _515  and  _516
REMARK  206  A    between atoms: _519  and  _521
REMARK  207  A    between atoms: _521  and  _522
REMARK  208  A    between atoms: _525  and  _527
REMARK  209  A    between atoms: _527  and  _528
REMARK  210  A    between atoms: _527  and  _530
REMARK  211  A    between atoms: _530  and  _531
REMARK  212  A    between atoms: _534  and  _536
REMARK  213  A    between atoms: _536  and  _537
REMARK  214  A    between atoms: _536  and  _539
REMARK  215  A    between atoms: _539  and  _540
REMARK  216  A    between atoms: _545  and  _547
REMARK  217  A    between atoms: _547  and  _548
REMARK  218  A    between atoms: _551  and  _553
REMARK  219  A    between atoms: _553  and  _554
REMARK  220  A    between atoms: _553  and  _556
REMARK  221  A    between atoms: _556  and  _557
REMARK  222  A    between atoms: _557  and  _558
REMARK  223  A    between atoms: _560  and  _562
REMARK  224  A    between atoms: _562  and  _563
REMARK  225  A    between atoms: _562  and  _565
REMARK  226  A    between atoms: _565  and  _566
REMARK  227  A    between atoms: _569  and  _571
REMARK  228  A    between atoms: _571  and  _572
REMARK  229  A    between atoms: _571  and  _574
REMARK  230  A    between atoms: _574  and  _575
REMARK  231  A    between atoms: _579  and  _580
REMARK  232  A    between atoms: _585  and  _587
REMARK  233  A    between atoms: _587  and  _588
REMARK  234  A    between atoms: _587  and  _590
REMARK  235  A    between atoms: _590  and  _591
REMARK  236  A    between atoms: _594  and  _596
REMARK  237  A    between atoms: _596  and  _597
REMARK  238  A    between atoms: _599  and  _601
REMARK  239  A    between atoms: _601  and  _602
REMARK  240  A    between atoms: _601  and  _604
REMARK  241  A    between atoms: _604  and  _605
REMARK  242  A    between atoms: _608  and  _610
REMARK  243  A    between atoms: _610  and  _611
REMARK  244  A    between atoms: _610  and  _613
REMARK  245  A    between atoms: _613  and  _614
REMARK  246  A    between atoms: _624  and  _626
REMARK  247  A    between atoms: _626  and  _627
REMARK  248  A    between atoms: _630  and  _632
REMARK  249  A    between atoms: _632  and  _633
REMARK  250  A    between atoms: _632  and  _635
REMARK  251  A    between atoms: _635  and  _636
REMARK  252  A    between atoms: _639  and  _641
REMARK  253  A    between atoms: _641  and  _642
REMARK  254  A    between atoms: _644  and  _646
REMARK  255  A    between atoms: _646  and  _647
REMARK                            x       y       z     vdW  Elec       q    Type
REMARK                         _______ _______ _______ _____ _____    ______ ____
ROOT
ATOM      1  O   HOH     1     -12.181   4.737   1.900  0.00  0.00    +0.000 OA
ENDROOT
TORSDOF 0
REMARK  Name = ../refined-set-2016/3d91/3d91_pocket.pdb
REMARK  255 active torsions:
REMARK  status: ('A' for Active; 'I' for Inactive)
REMARK    1  A    between atoms: _1  and  _3
REMARK    2  A    between atoms: _3  and  _4
REMARK    3  A    between atoms: _3  and  _6
REMARK    4  A    between atoms: _6  and  _7
REMARK    5  A    between atoms: _12  and  _13
REMARK    6  A    between atoms: _15  and  _17
REMARK    7  A    between atoms: _17  and  _18
REMARK    8  A    between atoms: _17  and  _20
REMARK    9  A    between atoms: _20  and  _21
REMARK   10  A    between atoms: _24  and  _26
REMARK   11  A    between atoms: _26  and  _27
REMARK   12  A    between atoms: _26  and  _29
REMARK   13  A    between atoms: _29  and  _30
REMARK   14  A    between atoms: _33  and  _35
REMARK   15  A    between atoms: _35  and  _36
REMARK   16  A    between atoms: _35  and  _38
REMARK   17  A    between atoms: _38  and  _39
REMARK   18  A    between atoms: _39  and  _40
REMARK   19  A    between atoms: _45  and  _47
REMARK   20  A    between atoms: _47  and  _48
REMARK   21  A    between atoms: _47  and  _50
REMARK   22  A    between atoms: _50  and  _51
REMARK   23  A    between atoms: _56  and  _57
REMARK   24  A    between atoms: _59  and  _61
REMARK   25  A    between atoms: _61  and  _62
REMARK   26  A    between atoms: _61  and  _64
REMARK   27  A    between atoms: _67  and  _69
REMARK   28  A    between atoms: _69  and  _70
REMARK   29  A    between atoms: _69  and  _72
REMARK   30  A    between atoms: _75  and  _77
REMARK   31  A    between atoms: _77  and  _78
REMARK   32  A    between atoms: _77  and  _80
REMARK   33  A    between atoms: _80  and  _81
REMARK   34  A    between atoms: _87  and  _89
REMARK   35  A    between atoms: _89  and  _90
REMARK   36  A    between atoms: _89  and  _92
REMARK   37  A    between atoms: _92  and  _93
REMARK   38  A    between atoms: _96  and  _98
REMARK   39  A    between atoms: _98  and  _99
REMARK   40  A    between atoms: _98  and  _101
REMARK   41  A    between atoms: _101  and  _102
REMARK   42  A    between atoms: _105  and  _107
REMARK   43  A    between atoms: _107  and  _108
REMARK   44  A    between atoms: _110  and  _112
REMARK   45  A    between atoms: _112  and  _113
REMARK   46  A    between atoms: _112  and  _115
REMARK   47  A    between atoms: _115  and  _116
REMARK   48  A    between atoms: _118  and  _120
REMARK   49  A    between atoms: _120  and  _121
REMARK   50  A    between atoms: _120  and  _123
REMARK   51  A    between atoms: _123  and  _124
REMARK   52  A    between atoms: _126  and  _128
REMARK   53  A    between atoms: _128  and  _129
REMARK   54  A    between atoms: _128  and  _131
REMARK   55  A    between atoms: _131  and  _132
REMARK   56  A    between atoms: _142  and  _144
REMARK   57  A    between atoms: _144  and  _145
REMARK   58  A    between atoms: _144  and  _147
REMARK   59  A    between atoms: _147  and  _148
REMARK   60  A    between atoms: _153  and  _155
REMARK   61  A    between atoms: _155  and  _156
REMARK   62  A    between atoms: _155  and  _158
REMARK   63  A    between atoms: _158  and  _159
REMARK   64  A    between atoms: _162  and  _164
REMARK   65  A    between atoms: _164  and  _165
REMARK   66  A    between atoms: _164  and  _167
REMARK   67  A    between atoms: _167  and  _168
REMARK   68  A    between atoms: _168  and  _169
REMARK   69  A    between atoms: _169  and  _170
REMARK   70  A    between atoms: _179  and  _181
REMARK   71  A    between atoms: _181  and  _182
REMARK   72  A    between atoms: _181  and  _184
REMARK   73  A    between atoms: _184  and  _185
REMARK   74  A    between atoms: _190  and  _191
REMARK   75  A    between atoms: _193  and  _195
REMARK   76  A    between atoms: _195  and  _196
REMARK   77  A    between atoms: _195  and  _198
REMARK   78  A    between atoms: _198  and  _199
REMARK   79  A    between atoms: _201  and  _203
REMARK   80  A    between atoms: _203  and  _204
REMARK   81  A    between atoms: _203  and  _206
REMARK   82  A    between atoms: _206  and  _207
REMARK   83  A    between atoms: _210  and  _212
REMARK   84  A    between atoms: _212  and  _213
REMARK   85  A    between atoms: _215  and  _217
REMARK   86  A    between atoms: _217  and  _218
REMARK   87  A    between atoms: _217  and  _220
REMARK   88  A    between atoms: _220  and  _221
REMARK   89  A    between atoms: _224  and  _226
REMARK   90  A    between atoms: _226  and  _227
REMARK   91  A    between atoms: _226  and  _229
REMARK   92  A    between atoms: _232  and  _234
REMARK   93  A    between atoms: _234  and  _235
REMARK   94  A    between atoms: _238  and  _240
REMARK   95  A    between atoms: _240  and  _241
REMARK   96  A    between atoms: _240  and  _243
REMARK   97  A    between atoms: _243  and  _244
REMARK   98  A    between atoms: _248  and  _249
REMARK   99  A    between atoms: _254  and  _256
REMARK  100  A    between atoms: _256  and  _257
REMARK  101  A    between atoms: _256  and  _259
REMARK  102  A    between atoms: _259  and  _260
REMARK  103  A    between atoms: _266  and  _268
REMARK  104  A    between atoms: _268  and  _269
REMARK  105  A    between atoms: _268  and  _271
REMARK  106  A    between atoms: _271  and  _272
REMARK  107  A    between atoms: _272  and  _273
REMARK  108  A    between atoms: _275  and  _277
REMARK  109  A    between atoms: _277  and  _278
REMARK  110  A    between atoms: _277  and  _280
REMARK  111  A    between atoms: _280  and  _281
REMARK  112  A    between atoms: _284  and  _286
REMARK  113  A    between atoms: _286  and  _287
REMARK  114  A    between atoms: _290  and  _292
REMARK  115  A    between atoms: _292  and  _293
REMARK  116  A    between atoms: _292  and  _295
REMARK  117  A    between atoms: _295  and  _296
REMARK  118  A    between atoms: _296  and  _297
REMARK  119  A    between atoms: _300  and  _302
REMARK  120  A    between atoms: _302  and  _303
REMARK  121  A    between atoms: _302  and  _305
REMARK  122  A    between atoms: _305  and  _306
REMARK  123  A    between atoms: _312  and  _314
REMARK  124  A    between atoms: _314  and  _315
REMARK  125  A    between atoms: _317  and  _319
REMARK  126  A    between atoms: _319  and  _320
REMARK  127  A    between atoms: _319  and  _322
REMARK  128  A    between atoms: _325  and  _327
REMARK  129  A    between atoms: _327  and  _328
REMARK  130  A    between atoms: _327  and  _330
REMARK  131  A    between atoms: _333  and  _335
REMARK  132  A    between atoms: _335  and  _336
REMARK  133  A    between atoms: _335  and  _338
REMARK  134  A    between atoms: _338  and  _339
REMARK  135  A    between atoms: _339  and  _340
REMARK  136  A    between atoms: _342  and  _344
REMARK  137  A    between atoms: _344  and  _345
REMARK  138  A    between atoms: _344  and  _347
REMARK  139  A    between atoms: _347  and  _348
REMARK  140  A    between atoms: _348  and  _349
REMARK  141  A    between atoms: _354  and  _356
REMARK  142  A    between atoms: _356  and  _357
REMARK  143  A    between atoms: _356  and  _359
REMARK  144  A    between atoms: _362  and  _364
REMARK  145  A    between atoms: _364  and  _365
REMARK  146  A    between atoms: _364  and  _367
REMARK  147  A    between atoms: _367  and  _368
REMARK  148  A    between atoms: _378  and  _380
REMARK  149  A    between atoms: _380  and  _381
REMARK  150  A    between atoms: _380  and  _383
REMARK  151  A    between atoms: _383  and  _384
REMARK  152  A    between atoms: _387  and  _389
REMARK  153  A    between atoms: _389  and  _390
REMARK  154  A    between atoms: _389  and  _392
REMARK  155  A    between atoms: _395  and  _397
REMARK  156  A    between atoms: _397  and  _398
REMARK  157  A    between atoms: _397  and  _400
REMARK  158  A    between atoms: _400  and  _401
REMARK  159  A    between atoms: _404  and  _406
REMARK  160  A    between atoms: _406  and  _407
REMARK  161  A    between atoms: _406  and  _409
REMARK  162  A    between atoms: _409  and  _410
REMARK  163  A    between atoms: _413  and  _415
REMARK  164  A    between atoms: _415  and  _416
REMARK  165  A    between atoms: _418  and  _420
REMARK  166  A    between atoms: _420  and  _421
REMARK  167  A    between atoms: _424  and  _426
REMARK  168  A    between atoms: _426  and  _427
REMARK  169  A    between atoms: _426  and  _429
REMARK  170  A    between atoms: _429  and  _430
REMARK  171  A    between atoms: _432  and  _434
REMARK  172  A    between atoms: _434  and  _435
REMARK  173  A    between atoms: _434  and  _437
REMARK  174  A    between atoms: _437  and  _438
REMARK  175  A    between atoms: _443  and  _444
REMARK  176  A    between atoms: _446  and  _448
REMARK  177  A    between atoms: _448  and  _449
REMARK  178  A    between atoms: _448  and  _451
REMARK  179  A    between atoms: _451  and  _452
REMARK  180  A    between atoms: _455  and  _457
REMARK  181  A    between atoms: _457  and  _458
REMARK  182  A    between atoms: _457  and  _460
REMARK  183  A    between atoms: _460  and  _461
REMARK  184  A    between atoms: _463  and  _465
REMARK  185  A    between atoms: _465  and  _466
REMARK  186  A    between atoms: _468  and  _470
REMARK  187  A    between atoms: _470  and  _471
REMARK  188  A    between atoms: _470  and  _473
REMARK  189  A    between atoms: _473  and  _474
REMARK  190  A    between atoms: _480  and  _482
REMARK  191  A    between atoms: _482  and  _483
REMARK  192  A    between atoms: _482  and  _485
REMARK  193  A    between atoms: _485  and  _486
REMARK  194  A    between atoms: _489  and  _491
REMARK  195  A    between atoms: _491  and  _492
REMARK  196  A    between atoms: _491  and  _494
REMARK  197  A    between atoms: _494  and  _495
REMARK  198  A    between atoms: _501  and  _503
REMARK  199  A    between atoms: _503  and  _504
REMARK  200  A    between atoms: _503  and  _506
REMARK  201  A    between atoms: _506  and  _507
REMARK  202  A    between atoms: _510  and  _512
REMARK  203  A    between atoms: _512  and  _513
REMARK  204  A    between atoms: _512  and  _515
REMARK  205  A    between atoms: _515  and  _516
REMARK  206  A    between atoms: _519  and  _521
REMARK  207  A    between atoms: _521  and  _522
REMARK  208  A    between atoms: _525  and  _527
REMARK  209  A    between atoms: _527  and  _528
REMARK  210  A    between atoms: _527  and  _530
REMARK  211  A    between atoms: _530  and  _531
REMARK  212  A    between atoms: _534  and  _536
REMARK  213  A    between atoms: _536  and  _537
REMARK  214  A    between atoms: _536  and  _539
REMARK  215  A    between atoms: _539  and  _540
REMARK  216  A    between atoms: _545  and  _547
REMARK  217  A    between atoms: _547  and  _548
REMARK  218  A    between atoms: _551  and  _553
REMARK  219  A    between atoms: _553  and  _554
REMARK  220  A    between atoms: _553  and  _556
REMARK  221  A    between atoms: _556  and  _557
REMARK  222  A    between atoms: _557  and  _558
REMARK  223  A    between atoms: _560  and  _562
REMARK  224  A    between atoms: _562  and  _563
REMARK  225  A    between atoms: _562  and  _565
REMARK  226  A    between atoms: _565  and  _566
REMARK  227  A    between atoms: _569  and  _571
REMARK  228  A    between atoms: _571  and  _572
REMARK  229  A    between atoms: _571  and  _574
REMARK  230  A    between atoms: _574  and  _575
REMARK  231  A    between atoms: _579  and  _580
REMARK  232  A    between atoms: _585  and  _587
REMARK  233  A    between atoms: _587  and  _588
REMARK  234  A    between atoms: _587  and  _590
REMARK  235  A    between atoms: _590  and  _591
REMARK  236  A    between atoms: _594  and  _596
REMARK  237  A    between atoms: _596  and  _597
REMARK  238  A    between atoms: _599  and  _601
REMARK  239  A    between atoms: _601  and  _602
REMARK  240  A    between atoms: _601  and  _604
REMARK  241  A    between atoms: _604  and  _605
REMARK  242  A    between atoms: _608  and  _610
REMARK  243  A    between atoms: _610  and  _611
REMARK  244  A    between atoms: _610  and  _613
REMARK  245  A    between atoms: _613  and  _614
REMARK  246  A    between atoms: _624  and  _626
REMARK  247  A    between atoms: _626  and  _627
REMARK  248  A    between atoms: _630  and  _632
REMARK  249  A    between atoms: _632  and  _633
REMARK  250  A    between atoms: _632  and  _635
REMARK  251  A    between atoms: _635  and  _636
REMARK  252  A    between atoms: _639  and  _641
REMARK  253  A    between atoms: _641  and  _642
REMARK  254  A    between atoms: _644  and  _646
REMARK  255  A    between atoms: _646  and  _647
REMARK                            x       y       z     vdW  Elec       q    Type
REMARK                         _______ _______ _______ _____ _____    ______ ____
ROOT
ATOM      1  O   HOH     1      -1.307  -4.520 -13.430  0.00  0.00    +0.000 OA
ENDROOT
TORSDOF 0
REMARK  Name = ../refined-set-2016/3d91/3d91_pocket.pdb
REMARK  255 active torsions:
REMARK  status: ('A' for Active; 'I' for Inactive)
REMARK    1  A    between atoms: _1  and  _3
REMARK    2  A    between atoms: _3  and  _4
REMARK    3  A    between atoms: _3  and  _6
REMARK    4  A    between atoms: _6  and  _7
REMARK    5  A    between atoms: _12  and  _13
REMARK    6  A    between atoms: _15  and  _17
REMARK    7  A    between atoms: _17  and  _18
REMARK    8  A    between atoms: _17  and  _20
REMARK    9  A    between atoms: _20  and  _21
REMARK   10  A    between atoms: _24  and  _26
REMARK   11  A    between atoms: _26  and  _27
REMARK   12  A    between atoms: _26  and  _29
REMARK   13  A    between atoms: _29  and  _30
REMARK   14  A    between atoms: _33  and  _35
REMARK   15  A    between atoms: _35  and  _36
REMARK   16  A    between atoms: _35  and  _38
REMARK   17  A    between atoms: _38  and  _39
REMARK   18  A    between atoms: _39  and  _40
REMARK   19  A    between atoms: _45  and  _47
REMARK   20  A    between atoms: _47  and  _48
REMARK   21  A    between atoms: _47  and  _50
REMARK   22  A    between atoms: _50  and  _51
REMARK   23  A    between atoms: _56  and  _57
REMARK   24  A    between atoms: _59  and  _61
REMARK   25  A    between atoms: _61  and  _62
REMARK   26  A    between atoms: _61  and  _64
REMARK   27  A    between atoms: _67  and  _69
REMARK   28  A    between atoms: _69  and  _70
REMARK   29  A    between atoms: _69  and  _72
REMARK   30  A    between atoms: _75  and  _77
REMARK   31  A    between atoms: _77  and  _78
REMARK   32  A    between atoms: _77  and  _80
REMARK   33  A    between atoms: _80  and  _81
REMARK   34  A    between atoms: _87  and  _89
REMARK   35  A    between atoms: _89  and  _90
REMARK   36  A    between atoms: _89  and  _92
REMARK   37  A    between atoms: _92  and  _93
REMARK   38  A    between atoms: _96  and  _98
REMARK   39  A    between atoms: _98  and  _99
REMARK   40  A    between atoms: _98  and  _101
REMARK   41  A    between atoms: _101  and  _102
REMARK   42  A    between atoms: _105  and  _107
REMARK   43  A    between atoms: _107  and  _108
REMARK   44  A    between atoms: _110  and  _112
REMARK   45  A    between atoms: _112  and  _113
REMARK   46  A    between atoms: _112  and  _115
REMARK   47  A    between atoms: _115  and  _116
REMARK   48  A    between atoms: _118  and  _120
REMARK   49  A    between atoms: _120  and  _121
REMARK   50  A    between atoms: _120  and  _123
REMARK   51  A    between atoms: _123  and  _124
REMARK   52  A    between atoms: _126  and  _128
REMARK   53  A    between atoms: _128  and  _129
REMARK   54  A    between atoms: _128  and  _131
REMARK   55  A    between atoms: _131  and  _132
REMARK   56  A    between atoms: _142  and  _144
REMARK   57  A    between atoms: _144  and  _145
REMARK   58  A    between atoms: _144  and  _147
REMARK   59  A    between atoms: _147  and  _148
REMARK   60  A    between atoms: _153  and  _155
REMARK   61  A    between atoms: _155  and  _156
REMARK   62  A    between atoms: _155  and  _158
REMARK   63  A    between atoms: _158  and  _159
REMARK   64  A    between atoms: _162  and  _164
REMARK   65  A    between atoms: _164  and  _165
REMARK   66  A    between atoms: _164  and  _167
REMARK   67  A    between atoms: _167  and  _168
REMARK   68  A    between atoms: _168  and  _169
REMARK   69  A    between atoms: _169  and  _170
REMARK   70  A    between atoms: _179  and  _181
REMARK   71  A    between atoms: _181  and  _182
REMARK   72  A    between atoms: _181  and  _184
REMARK   73  A    between atoms: _184  and  _185
REMARK   74  A    between atoms: _190  and  _191
REMARK   75  A    between atoms: _193  and  _195
REMARK   76  A    between atoms: _195  and  _196
REMARK   77  A    between atoms: _195  and  _198
REMARK   78  A    between atoms: _198  and  _199
REMARK   79  A    between atoms: _201  and  _203
REMARK   80  A    between atoms: _203  and  _204
REMARK   81  A    between atoms: _203  and  _206
REMARK   82  A    between atoms: _206  and  _207
REMARK   83  A    between atoms: _210  and  _212
REMARK   84  A    between atoms: _212  and  _213
REMARK   85  A    between atoms: _215  and  _217
REMARK   86  A    between atoms: _217  and  _218
REMARK   87  A    between atoms: _217  and  _220
REMARK   88  A    between atoms: _220  and  _221
REMARK   89  A    between atoms: _224  and  _226
REMARK   90  A    between atoms: _226  and  _227
REMARK   91  A    between atoms: _226  and  _229
REMARK   92  A    between atoms: _232  and  _234
REMARK   93  A    between atoms: _234  and  _235
REMARK   94  A    between atoms: _238  and  _240
REMARK   95  A    between atoms: _240  and  _241
REMARK   96  A    between atoms: _240  and  _243
REMARK   97  A    between atoms: _243  and  _244
REMARK   98  A    between atoms: _248  and  _249
REMARK   99  A    between atoms: _254  and  _256
REMARK  100  A    between atoms: _256  and  _257
REMARK  101  A    between atoms: _256  and  _259
REMARK  102  A    between atoms: _259  and  _260
REMARK  103  A    between atoms: _266  and  _268
REMARK  104  A    between atoms: _268  and  _269
REMARK  105  A    between atoms: _268  and  _271
REMARK  106  A    between atoms: _271  and  _272
REMARK  107  A    between atoms: _272  and  _273
REMARK  108  A    between atoms: _275  and  _277
REMARK  109  A    between atoms: _277  and  _278
REMARK  110  A    between atoms: _277  and  _280
REMARK  111  A    between atoms: _280  and  _281
REMARK  112  A    between atoms: _284  and  _286
REMARK  113  A    between atoms: _286  and  _287
REMARK  114  A    between atoms: _290  and  _292
REMARK  115  A    between atoms: _292  and  _293
REMARK  116  A    between atoms: _292  and  _295
REMARK  117  A    between atoms: _295  and  _296
REMARK  118  A    between atoms: _296  and  _297
REMARK  119  A    between atoms: _300  and  _302
REMARK  120  A    between atoms: _302  and  _303
REMARK  121  A    between atoms: _302  and  _305
REMARK  122  A    between atoms: _305  and  _306
REMARK  123  A    between atoms: _312  and  _314
REMARK  124  A    between atoms: _314  and  _315
REMARK  125  A    between atoms: _317  and  _319
REMARK  126  A    between atoms: _319  and  _320
REMARK  127  A    between atoms: _319  and  _322
REMARK  128  A    between atoms: _325  and  _327
REMARK  129  A    between atoms: _327  and  _328
REMARK  130  A    between atoms: _327  and  _330
REMARK  131  A    between atoms: _333  and  _335
REMARK  132  A    between atoms: _335  and  _336
REMARK  133  A    between atoms: _335  and  _338
REMARK  134  A    between atoms: _338  and  _339
REMARK  135  A    between atoms: _339  and  _340
REMARK  136  A    between atoms: _342  and  _344
REMARK  137  A    between atoms: _344  and  _345
REMARK  138  A    between atoms: _344  and  _347
REMARK  139  A    between atoms: _347  and  _348
REMARK  140  A    between atoms: _348  and  _349
REMARK  141  A    between atoms: _354  and  _356
REMARK  142  A    between atoms: _356  and  _357
REMARK  143  A    between atoms: _356  and  _359
REMARK  144  A    between atoms: _362  and  _364
REMARK  145  A    between atoms: _364  and  _365
REMARK  146  A    between atoms: _364  and  _367
REMARK  147  A    between atoms: _367  and  _368
REMARK  148  A    between atoms: _378  and  _380
REMARK  149  A    between atoms: _380  and  _381
REMARK  150  A    between atoms: _380  and  _383
REMARK  151  A    between atoms: _383  and  _384
REMARK  152  A    between atoms: _387  and  _389
REMARK  153  A    between atoms: _389  and  _390
REMARK  154  A    between atoms: _389  and  _392
REMARK  155  A    between atoms: _395  and  _397
REMARK  156  A    between atoms: _397  and  _398
REMARK  157  A    between atoms: _397  and  _400
REMARK  158  A    between atoms: _400  and  _401
REMARK  159  A    between atoms: _404  and  _406
REMARK  160  A    between atoms: _406  and  _407
REMARK  161  A    between atoms: _406  and  _409
REMARK  162  A    between atoms: _409  and  _410
REMARK  163  A    between atoms: _413  and  _415
REMARK  164  A    between atoms: _415  and  _416
REMARK  165  A    between atoms: _418  and  _420
REMARK  166  A    between atoms: _420  and  _421
REMARK  167  A    between atoms: _424  and  _426
REMARK  168  A    between atoms: _426  and  _427
REMARK  169  A    between atoms: _426  and  _429
REMARK  170  A    between atoms: _429  and  _430
REMARK  171  A    between atoms: _432  and  _434
REMARK  172  A    between atoms: _434  and  _435
REMARK  173  A    between atoms: _434  and  _437
REMARK  174  A    between atoms: _437  and  _438
REMARK  175  A    between atoms: _443  and  _444
REMARK  176  A    between atoms: _446  and  _448
REMARK  177  A    between atoms: _448  and  _449
REMARK  178  A    between atoms: _448  and  _451
REMARK  179  A    between atoms: _451  and  _452
REMARK  180  A    between atoms: _455  and  _457
REMARK  181  A    between atoms: _457  and  _458
REMARK  182  A    between atoms: _457  and  _460
REMARK  183  A    between atoms: _460  and  _461
REMARK  184  A    between atoms: _463  and  _465
REMARK  185  A    between atoms: _465  and  _466
REMARK  186  A    between atoms: _468  and  _470
REMARK  187  A    between atoms: _470  and  _471
REMARK  188  A    between atoms: _470  and  _473
REMARK  189  A    between atoms: _473  and  _474
REMARK  190  A    between atoms: _480  and  _482
REMARK  191  A    between atoms: _482  and  _483
REMARK  192  A    between atoms: _482  and  _485
REMARK  193  A    between atoms: _485  and  _486
REMARK  194  A    between atoms: _489  and  _491
REMARK  195  A    between atoms: _491  and  _492
REMARK  196  A    between atoms: _491  and  _494
REMARK  197  A    between atoms: _494  and  _495
REMARK  198  A    between atoms: _501  and  _503
REMARK  199  A    between atoms: _503  and  _504
REMARK  200  A    between atoms: _503  and  _506
REMARK  201  A    between atoms: _506  and  _507
REMARK  202  A    between atoms: _510  and  _512
REMARK  203  A    between atoms: _512  and  _513
REMARK  204  A    between atoms: _512  and  _515
REMARK  205  A    between atoms: _515  and  _516
REMARK  206  A    between atoms: _519  and  _521
REMARK  207  A    between atoms: _521  and  _522
REMARK  208  A    between atoms: _525  and  _527
REMARK  209  A    between atoms: _527  and  _528
REMARK  210  A    between atoms: _527  and  _530
REMARK  211  A    between atoms: _530  and  _531
REMARK  212  A    between atoms: _534  and  _536
REMARK  213  A    between atoms: _536  and  _537
REMARK  214  A    between atoms: _536  and  _539
REMARK  215  A    between atoms: _539  and  _540
REMARK  216  A    between atoms: _545  and  _547
REMARK  217  A    between atoms: _547  and  _548
REMARK  218  A    between atoms: _551  and  _553
REMARK  219  A    between atoms: _553  and  _554
REMARK  220  A    between atoms: _553  and  _556
REMARK  221  A    between atoms: _556  and  _557
REMARK  222  A    between atoms: _557  and  _558
REMARK  223  A    between atoms: _560  and  _562
REMARK  224  A    between atoms: _562  and  _563
REMARK  225  A    between atoms: _562  and  _565
REMARK  226  A    between atoms: _565  and  _566
REMARK  227  A    between atoms: _569  and  _571
REMARK  228  A    between atoms: _571  and  _572
REMARK  229  A    between atoms: _571  and  _574
REMARK  230  A    between atoms: _574  and  _575
REMARK  231  A    between atoms: _579  and  _580
REMARK  232  A    between atoms: _585  and  _587
REMARK  233  A    between atoms: _587  and  _588
REMARK  234  A    between atoms: _587  and  _590
REMARK  235  A    between atoms: _590  and  _591
REMARK  236  A    between atoms: _594  and  _596
REMARK  237  A    between atoms: _596  and  _597
REMARK  238  A    between atoms: _599  and  _601
REMARK  239  A    between atoms: _601  and  _602
REMARK  240  A    between atoms: _601  and  _604
REMARK  241  A    between atoms: _604  and  _605
REMARK  242  A    between atoms: _608  and  _610
REMARK  243  A    between atoms: _610  and  _611
REMARK  244  A    between atoms: _610  and  _613
REMARK  245  A    between atoms: _613  and  _614
REMARK  246  A    between atoms: _624  and  _626
REMARK  247  A    between atoms: _626  and  _627
REMARK  248  A    between atoms: _630  and  _632
REMARK  249  A    between atoms: _632  and  _633
REMARK  250  A    between atoms: _632  and  _635
REMARK  251  A    between atoms: _635  and  _636
REMARK  252  A    between atoms: _639  and  _641
REMARK  253  A    between atoms: _641  and  _642
REMARK  254  A    between atoms: _644  and  _646
REMARK  255  A    between atoms: _646  and  _647
REMARK                            x       y       z     vdW  Elec       q    Type
REMARK                         _______ _______ _______ _____ _____    ______ ____
ROOT
ATOM      1  O   HOH     1      -9.629   9.618   1.723  0.00  0.00    +0.000 OA
ENDROOT
TORSDOF 0
REMARK  Name = ../refined-set-2016/3d91/3d91_pocket.pdb
REMARK  255 active torsions:
REMARK  status: ('A' for Active; 'I' for Inactive)
REMARK    1  A    between atoms: _1  and  _3
REMARK    2  A    between atoms: _3  and  _4
REMARK    3  A    between atoms: _3  and  _6
REMARK    4  A    between atoms: _6  and  _7
REMARK    5  A    between atoms: _12  and  _13
REMARK    6  A    between atoms: _15  and  _17
REMARK    7  A    between atoms: _17  and  _18
REMARK    8  A    between atoms: _17  and  _20
REMARK    9  A    between atoms: _20  and  _21
REMARK   10  A    between atoms: _24  and  _26
REMARK   11  A    between atoms: _26  and  _27
REMARK   12  A    between atoms: _26  and  _29
REMARK   13  A    between atoms: _29  and  _30
REMARK   14  A    between atoms: _33  and  _35
REMARK   15  A    between atoms: _35  and  _36
REMARK   16  A    between atoms: _35  and  _38
REMARK   17  A    between atoms: _38  and  _39
REMARK   18  A    between atoms: _39  and  _40
REMARK   19  A    between atoms: _45  and  _47
REMARK   20  A    between atoms: _47  and  _48
REMARK   21  A    between atoms: _47  and  _50
REMARK   22  A    between atoms: _50  and  _51
REMARK   23  A    between atoms: _56  and  _57
REMARK   24  A    between atoms: _59  and  _61
REMARK   25  A    between atoms: _61  and  _62
REMARK   26  A    between atoms: _61  and  _64
REMARK   27  A    between atoms: _67  and  _69
REMARK   28  A    between atoms: _69  and  _70
REMARK   29  A    between atoms: _69  and  _72
REMARK   30  A    between atoms: _75  and  _77
REMARK   31  A    between atoms: _77  and  _78
REMARK   32  A    between atoms: _77  and  _80
REMARK   33  A    between atoms: _80  and  _81
REMARK   34  A    between atoms: _87  and  _89
REMARK   35  A    between atoms: _89  and  _90
REMARK   36  A    between atoms: _89  and  _92
REMARK   37  A    between atoms: _92  and  _93
REMARK   38  A    between atoms: _96  and  _98
REMARK   39  A    between atoms: _98  and  _99
REMARK   40  A    between atoms: _98  and  _101
REMARK   41  A    between atoms: _101  and  _102
REMARK   42  A    between atoms: _105  and  _107
REMARK   43  A    between atoms: _107  and  _108
REMARK   44  A    between atoms: _110  and  _112
REMARK   45  A    between atoms: _112  and  _113
REMARK   46  A    between atoms: _112  and  _115
REMARK   47  A    between atoms: _115  and  _116
REMARK   48  A    between atoms: _118  and  _120
REMARK   49  A    between atoms: _120  and  _121
REMARK   50  A    between atoms: _120  and  _123
REMARK   51  A    between atoms: _123  and  _124
REMARK   52  A    between atoms: _126  and  _128
REMARK   53  A    between atoms: _128  and  _129
REMARK   54  A    between atoms: _128  and  _131
REMARK   55  A    between atoms: _131  and  _132
REMARK   56  A    between atoms: _142  and  _144
REMARK   57  A    between atoms: _144  and  _145
REMARK   58  A    between atoms: _144  and  _147
REMARK   59  A    between atoms: _147  and  _148
REMARK   60  A    between atoms: _153  and  _155
REMARK   61  A    between atoms: _155  and  _156
REMARK   62  A    between atoms: _155  and  _158
REMARK   63  A    between atoms: _158  and  _159
REMARK   64  A    between atoms: _162  and  _164
REMARK   65  A    between atoms: _164  and  _165
REMARK   66  A    between atoms: _164  and  _167
REMARK   67  A    between atoms: _167  and  _168
REMARK   68  A    between atoms: _168  and  _169
REMARK   69  A    between atoms: _169  and  _170
REMARK   70  A    between atoms: _179  and  _181
REMARK   71  A    between atoms: _181  and  _182
REMARK   72  A    between atoms: _181  and  _184
REMARK   73  A    between atoms: _184  and  _185
REMARK   74  A    between atoms: _190  and  _191
REMARK   75  A    between atoms: _193  and  _195
REMARK   76  A    between atoms: _195  and  _196
REMARK   77  A    between atoms: _195  and  _198
REMARK   78  A    between atoms: _198  and  _199
REMARK   79  A    between atoms: _201  and  _203
REMARK   80  A    between atoms: _203  and  _204
REMARK   81  A    between atoms: _203  and  _206
REMARK   82  A    between atoms: _206  and  _207
REMARK   83  A    between atoms: _210  and  _212
REMARK   84  A    between atoms: _212  and  _213
REMARK   85  A    between atoms: _215  and  _217
REMARK   86  A    between atoms: _217  and  _218
REMARK   87  A    between atoms: _217  and  _220
REMARK   88  A    between atoms: _220  and  _221
REMARK   89  A    between atoms: _224  and  _226
REMARK   90  A    between atoms: _226  and  _227
REMARK   91  A    between atoms: _226  and  _229
REMARK   92  A    between atoms: _232  and  _234
REMARK   93  A    between atoms: _234  and  _235
REMARK   94  A    between atoms: _238  and  _240
REMARK   95  A    between atoms: _240  and  _241
REMARK   96  A    between atoms: _240  and  _243
REMARK   97  A    between atoms: _243  and  _244
REMARK   98  A    between atoms: _248  and  _249
REMARK   99  A    between atoms: _254  and  _256
REMARK  100  A    between atoms: _256  and  _257
REMARK  101  A    between atoms: _256  and  _259
REMARK  102  A    between atoms: _259  and  _260
REMARK  103  A    between atoms: _266  and  _268
REMARK  104  A    between atoms: _268  and  _269
REMARK  105  A    between atoms: _268  and  _271
REMARK  106  A    between atoms: _271  and  _272
REMARK  107  A    between atoms: _272  and  _273
REMARK  108  A    between atoms: _275  and  _277
REMARK  109  A    between atoms: _277  and  _278
REMARK  110  A    between atoms: _277  and  _280
REMARK  111  A    between atoms: _280  and  _281
REMARK  112  A    between atoms: _284  and  _286
REMARK  113  A    between atoms: _286  and  _287
REMARK  114  A    between atoms: _290  and  _292
REMARK  115  A    between atoms: _292  and  _293
REMARK  116  A    between atoms: _292  and  _295
REMARK  117  A    between atoms: _295  and  _296
REMARK  118  A    between atoms: _296  and  _297
REMARK  119  A    between atoms: _300  and  _302
REMARK  120  A    between atoms: _302  and  _303
REMARK  121  A    between atoms: _302  and  _305
REMARK  122  A    between atoms: _305  and  _306
REMARK  123  A    between atoms: _312  and  _314
REMARK  124  A    between atoms: _314  and  _315
REMARK  125  A    between atoms: _317  and  _319
REMARK  126  A    between atoms: _319  and  _320
REMARK  127  A    between atoms: _319  and  _322
REMARK  128  A    between atoms: _325  and  _327
REMARK  129  A    between atoms: _327  and  _328
REMARK  130  A    between atoms: _327  and  _330
REMARK  131  A    between atoms: _333  and  _335
REMARK  132  A    between atoms: _335  and  _336
REMARK  133  A    between atoms: _335  and  _338
REMARK  134  A    between atoms: _338  and  _339
REMARK  135  A    between atoms: _339  and  _340
REMARK  136  A    between atoms: _342  and  _344
REMARK  137  A    between atoms: _344  and  _345
REMARK  138  A    between atoms: _344  and  _347
REMARK  139  A    between atoms: _347  and  _348
REMARK  140  A    between atoms: _348  and  _349
REMARK  141  A    between atoms: _354  and  _356
REMARK  142  A    between atoms: _356  and  _357
REMARK  143  A    between atoms: _356  and  _359
REMARK  144  A    between atoms: _362  and  _364
REMARK  145  A    between atoms: _364  and  _365
REMARK  146  A    between atoms: _364  and  _367
REMARK  147  A    between atoms: _367  and  _368
REMARK  148  A    between atoms: _378  and  _380
REMARK  149  A    between atoms: _380  and  _381
REMARK  150  A    between atoms: _380  and  _383
REMARK  151  A    between atoms: _383  and  _384
REMARK  152  A    between atoms: _387  and  _389
REMARK  153  A    between atoms: _389  and  _390
REMARK  154  A    between atoms: _389  and  _392
REMARK  155  A    between atoms: _395  and  _397
REMARK  156  A    between atoms: _397  and  _398
REMARK  157  A    between atoms: _397  and  _400
REMARK  158  A    between atoms: _400  and  _401
REMARK  159  A    between atoms: _404  and  _406
REMARK  160  A    between atoms: _406  and  _407
REMARK  161  A    between atoms: _406  and  _409
REMARK  162  A    between atoms: _409  and  _410
REMARK  163  A    between atoms: _413  and  _415
REMARK  164  A    between atoms: _415  and  _416
REMARK  165  A    between atoms: _418  and  _420
REMARK  166  A    between atoms: _420  and  _421
REMARK  167  A    between atoms: _424  and  _426
REMARK  168  A    between atoms: _426  and  _427
REMARK  169  A    between atoms: _426  and  _429
REMARK  170  A    between atoms: _429  and  _430
REMARK  171  A    between atoms: _432  and  _434
REMARK  172  A    between atoms: _434  and  _435
REMARK  173  A    between atoms: _434  and  _437
REMARK  174  A    between atoms: _437  and  _438
REMARK  175  A    between atoms: _443  and  _444
REMARK  176  A    between atoms: _446  and  _448
REMARK  177  A    between atoms: _448  and  _449
REMARK  178  A    between atoms: _448  and  _451
REMARK  179  A    between atoms: _451  and  _452
REMARK  180  A    between atoms: _455  and  _457
REMARK  181  A    between atoms: _457  and  _458
REMARK  182  A    between atoms: _457  and  _460
REMARK  183  A    between atoms: _460  and  _461
REMARK  184  A    between atoms: _463  and  _465
REMARK  185  A    between atoms: _465  and  _466
REMARK  186  A    between atoms: _468  and  _470
REMARK  187  A    between atoms: _470  and  _471
REMARK  188  A    between atoms: _470  and  _473
REMARK  189  A    between atoms: _473  and  _474
REMARK  190  A    between atoms: _480  and  _482
REMARK  191  A    between atoms: _482  and  _483
REMARK  192  A    between atoms: _482  and  _485
REMARK  193  A    between atoms: _485  and  _486
REMARK  194  A    between atoms: _489  and  _491
REMARK  195  A    between atoms: _491  and  _492
REMARK  196  A    between atoms: _491  and  _494
REMARK  197  A    between atoms: _494  and  _495
REMARK  198  A    between atoms: _501  and  _503
REMARK  199  A    between atoms: _503  and  _504
REMARK  200  A    between atoms: _503  and  _506
REMARK  201  A    between atoms: _506  and  _507
REMARK  202  A    between atoms: _510  and  _512
REMARK  203  A    between atoms: _512  and  _513
REMARK  204  A    between atoms: _512  and  _515
REMARK  205  A    between atoms: _515  and  _516
REMARK  206  A    between atoms: _519  and  _521
REMARK  207  A    between atoms: _521  and  _522
REMARK  208  A    between atoms: _525  and  _527
REMARK  209  A    between atoms: _527  and  _528
REMARK  210  A    between atoms: _527  and  _530
REMARK  211  A    between atoms: _530  and  _531
REMARK  212  A    between atoms: _534  and  _536
REMARK  213  A    between atoms: _536  and  _537
REMARK  214  A    between atoms: _536  and  _539
REMARK  215  A    between atoms: _539  and  _540
REMARK  216  A    between atoms: _545  and  _547
REMARK  217  A    between atoms: _547  and  _548
REMARK  218  A    between atoms: _551  and  _553
REMARK  219  A    between atoms: _553  and  _554
REMARK  220  A    between atoms: _553  and  _556
REMARK  221  A    between atoms: _556  and  _557
REMARK  222  A    between atoms: _557  and  _558
REMARK  223  A    between atoms: _560  and  _562
REMARK  224  A    between atoms: _562  and  _563
REMARK  225  A    between atoms: _562  and  _565
REMARK  226  A    between atoms: _565  and  _566
REMARK  227  A    between atoms: _569  and  _571
REMARK  228  A    between atoms: _571  and  _572
REMARK  229  A    between atoms: _571  and  _574
REMARK  230  A    between atoms: _574  and  _575
REMARK  231  A    between atoms: _579  and  _580
REMARK  232  A    between atoms: _585  and  _587
REMARK  233  A    between atoms: _587  and  _588
REMARK  234  A    between atoms: _587  and  _590
REMARK  235  A    between atoms: _590  and  _591
REMARK  236  A    between atoms: _594  and  _596
REMARK  237  A    between atoms: _596  and  _597
REMARK  238  A    between atoms: _599  and  _601
REMARK  239  A    between atoms: _601  and  _602
REMARK  240  A    between atoms: _601  and  _604
REMARK  241  A    between atoms: _604  and  _605
REMARK  242  A    between atoms: _608  and  _610
REMARK  243  A    between atoms: _610  and  _611
REMARK  244  A    between atoms: _610  and  _613
REMARK  245  A    between atoms: _613  and  _614
REMARK  246  A    between atoms: _624  and  _626
REMARK  247  A    between atoms: _626  and  _627
REMARK  248  A    between atoms: _630  and  _632
REMARK  249  A    between atoms: _632  and  _633
REMARK  250  A    between atoms: _632  and  _635
REMARK  251  A    between atoms: _635  and  _636
REMARK  252  A    between atoms: _639  and  _641
REMARK  253  A    between atoms: _641  and  _642
REMARK  254  A    between atoms: _644  and  _646
REMARK  255  A    between atoms: _646  and  _647
REMARK                            x       y       z     vdW  Elec       q    Type
REMARK                         _______ _______ _______ _____ _____    ______ ____
ROOT
ATOM      1  O   HOH     1      -3.086   4.110 -10.664  0.00  0.00    +0.000 OA
ENDROOT
TORSDOF 0
REMARK  Name = ../refined-set-2016/3d91/3d91_pocket.pdb
REMARK  255 active torsions:
REMARK  status: ('A' for Active; 'I' for Inactive)
REMARK    1  A    between atoms: _1  and  _3
REMARK    2  A    between atoms: _3  and  _4
REMARK    3  A    between atoms: _3  and  _6
REMARK    4  A    between atoms: _6  and  _7
REMARK    5  A    between atoms: _12  and  _13
REMARK    6  A    between atoms: _15  and  _17
REMARK    7  A    between atoms: _17  and  _18
REMARK    8  A    between atoms: _17  and  _20
REMARK    9  A    between atoms: _20  and  _21
REMARK   10  A    between atoms: _24  and  _26
REMARK   11  A    between atoms: _26  and  _27
REMARK   12  A    between atoms: _26  and  _29
REMARK   13  A    between atoms: _29  and  _30
REMARK   14  A    between atoms: _33  and  _35
REMARK   15  A    between atoms: _35  and  _36
REMARK   16  A    between atoms: _35  and  _38
REMARK   17  A    between atoms: _38  and  _39
REMARK   18  A    between atoms: _39  and  _40
REMARK   19  A    between atoms: _45  and  _47
REMARK   20  A    between atoms: _47  and  _48
REMARK   21  A    between atoms: _47  and  _50
REMARK   22  A    between atoms: _50  and  _51
REMARK   23  A    between atoms: _56  and  _57
REMARK   24  A    between atoms: _59  and  _61
REMARK   25  A    between atoms: _61  and  _62
REMARK   26  A    between atoms: _61  and  _64
REMARK   27  A    between atoms: _67  and  _69
REMARK   28  A    between atoms: _69  and  _70
REMARK   29  A    between atoms: _69  and  _72
REMARK   30  A    between atoms: _75  and  _77
REMARK   31  A    between atoms: _77  and  _78
REMARK   32  A    between atoms: _77  and  _80
REMARK   33  A    between atoms: _80  and  _81
REMARK   34  A    between atoms: _87  and  _89
REMARK   35  A    between atoms: _89  and  _90
REMARK   36  A    between atoms: _89  and  _92
REMARK   37  A    between atoms: _92  and  _93
REMARK   38  A    between atoms: _96  and  _98
REMARK   39  A    between atoms: _98  and  _99
REMARK   40  A    between atoms: _98  and  _101
REMARK   41  A    between atoms: _101  and  _102
REMARK   42  A    between atoms: _105  and  _107
REMARK   43  A    between atoms: _107  and  _108
REMARK   44  A    between atoms: _110  and  _112
REMARK   45  A    between atoms: _112  and  _113
REMARK   46  A    between atoms: _112  and  _115
REMARK   47  A    between atoms: _115  and  _116
REMARK   48  A    between atoms: _118  and  _120
REMARK   49  A    between atoms: _120  and  _121
REMARK   50  A    between atoms: _120  and  _123
REMARK   51  A    between atoms: _123  and  _124
REMARK   52  A    between atoms: _126  and  _128
REMARK   53  A    between atoms: _128  and  _129
REMARK   54  A    between atoms: _128  and  _131
REMARK   55  A    between atoms: _131  and  _132
REMARK   56  A    between atoms: _142  and  _144
REMARK   57  A    between atoms: _144  and  _145
REMARK   58  A    between atoms: _144  and  _147
REMARK   59  A    between atoms: _147  and  _148
REMARK   60  A    between atoms: _153  and  _155
REMARK   61  A    between atoms: _155  and  _156
REMARK   62  A    between atoms: _155  and  _158
REMARK   63  A    between atoms: _158  and  _159
REMARK   64  A    between atoms: _162  and  _164
REMARK   65  A    between atoms: _164  and  _165
REMARK   66  A    between atoms: _164  and  _167
REMARK   67  A    between atoms: _167  and  _168
REMARK   68  A    between atoms: _168  and  _169
REMARK   69  A    between atoms: _169  and  _170
REMARK   70  A    between atoms: _179  and  _181
REMARK   71  A    between atoms: _181  and  _182
REMARK   72  A    between atoms: _181  and  _184
REMARK   73  A    between atoms: _184  and  _185
REMARK   74  A    between atoms: _190  and  _191
REMARK   75  A    between atoms: _193  and  _195
REMARK   76  A    between atoms: _195  and  _196
REMARK   77  A    between atoms: _195  and  _198
REMARK   78  A    between atoms: _198  and  _199
REMARK   79  A    between atoms: _201  and  _203
REMARK   80  A    between atoms: _203  and  _204
REMARK   81  A    between atoms: _203  and  _206
REMARK   82  A    between atoms: _206  and  _207
REMARK   83  A    between atoms: _210  and  _212
REMARK   84  A    between atoms: _212  and  _213
REMARK   85  A    between atoms: _215  and  _217
REMARK   86  A    between atoms: _217  and  _218
REMARK   87  A    between atoms: _217  and  _220
REMARK   88  A    between atoms: _220  and  _221
REMARK   89  A    between atoms: _224  and  _226
REMARK   90  A    between atoms: _226  and  _227
REMARK   91  A    between atoms: _226  and  _229
REMARK   92  A    between atoms: _232  and  _234
REMARK   93  A    between atoms: _234  and  _235
REMARK   94  A    between atoms: _238  and  _240
REMARK   95  A    between atoms: _240  and  _241
REMARK   96  A    between atoms: _240  and  _243
REMARK   97  A    between atoms: _243  and  _244
REMARK   98  A    between atoms: _248  and  _249
REMARK   99  A    between atoms: _254  and  _256
REMARK  100  A    between atoms: _256  and  _257
REMARK  101  A    between atoms: _256  and  _259
REMARK  102  A    between atoms: _259  and  _260
REMARK  103  A    between atoms: _266  and  _268
REMARK  104  A    between atoms: _268  and  _269
REMARK  105  A    between atoms: _268  and  _271
REMARK  106  A    between atoms: _271  and  _272
REMARK  107  A    between atoms: _272  and  _273
REMARK  108  A    between atoms: _275  and  _277
REMARK  109  A    between atoms: _277  and  _278
REMARK  110  A    between atoms: _277  and  _280
REMARK  111  A    between atoms: _280  and  _281
REMARK  112  A    between atoms: _284  and  _286
REMARK  113  A    between atoms: _286  and  _287
REMARK  114  A    between atoms: _290  and  _292
REMARK  115  A    between atoms: _292  and  _293
REMARK  116  A    between atoms: _292  and  _295
REMARK  117  A    between atoms: _295  and  _296
REMARK  118  A    between atoms: _296  and  _297
REMARK  119  A    between atoms: _300  and  _302
REMARK  120  A    between atoms: _302  and  _303
REMARK  121  A    between atoms: _302  and  _305
REMARK  122  A    between atoms: _305  and  _306
REMARK  123  A    between atoms: _312  and  _314
REMARK  124  A    between atoms: _314  and  _315
REMARK  125  A    between atoms: _317  and  _319
REMARK  126  A    between atoms: _319  and  _320
REMARK  127  A    between atoms: _319  and  _322
REMARK  128  A    between atoms: _325  and  _327
REMARK  129  A    between atoms: _327  and  _328
REMARK  130  A    between atoms: _327  and  _330
REMARK  131  A    between atoms: _333  and  _335
REMARK  132  A    between atoms: _335  and  _336
REMARK  133  A    between atoms: _335  and  _338
REMARK  134  A    between atoms: _338  and  _339
REMARK  135  A    between atoms: _339  and  _340
REMARK  136  A    between atoms: _342  and  _344
REMARK  137  A    between atoms: _344  and  _345
REMARK  138  A    between atoms: _344  and  _347
REMARK  139  A    between atoms: _347  and  _348
REMARK  140  A    between atoms: _348  and  _349
REMARK  141  A    between atoms: _354  and  _356
REMARK  142  A    between atoms: _356  and  _357
REMARK  143  A    between atoms: _356  and  _359
REMARK  144  A    between atoms: _362  and  _364
REMARK  145  A    between atoms: _364  and  _365
REMARK  146  A    between atoms: _364  and  _367
REMARK  147  A    between atoms: _367  and  _368
REMARK  148  A    between atoms: _378  and  _380
REMARK  149  A    between atoms: _380  and  _381
REMARK  150  A    between atoms: _380  and  _383
REMARK  151  A    between atoms: _383  and  _384
REMARK  152  A    between atoms: _387  and  _389
REMARK  153  A    between atoms: _389  and  _390
REMARK  154  A    between atoms: _389  and  _392
REMARK  155  A    between atoms: _395  and  _397
REMARK  156  A    between atoms: _397  and  _398
REMARK  157  A    between atoms: _397  and  _400
REMARK  158  A    between atoms: _400  and  _401
REMARK  159  A    between atoms: _404  and  _406
REMARK  160  A    between atoms: _406  and  _407
REMARK  161  A    between atoms: _406  and  _409
REMARK  162  A    between atoms: _409  and  _410
REMARK  163  A    between atoms: _413  and  _415
REMARK  164  A    between atoms: _415  and  _416
REMARK  165  A    between atoms: _418  and  _420
REMARK  166  A    between atoms: _420  and  _421
REMARK  167  A    between atoms: _424  and  _426
REMARK  168  A    between atoms: _426  and  _427
REMARK  169  A    between atoms: _426  and  _429
REMARK  170  A    between atoms: _429  and  _430
REMARK  171  A    between atoms: _432  and  _434
REMARK  172  A    between atoms: _434  and  _435
REMARK  173  A    between atoms: _434  and  _437
REMARK  174  A    between atoms: _437  and  _438
REMARK  175  A    between atoms: _443  and  _444
REMARK  176  A    between atoms: _446  and  _448
REMARK  177  A    between atoms: _448  and  _449
REMARK  178  A    between atoms: _448  and  _451
REMARK  179  A    between atoms: _451  and  _452
REMARK  180  A    between atoms: _455  and  _457
REMARK  181  A    between atoms: _457  and  _458
REMARK  182  A    between atoms: _457  and  _460
REMARK  183  A    between atoms: _460  and  _461
REMARK  184  A    between atoms: _463  and  _465
REMARK  185  A    between atoms: _465  and  _466
REMARK  186  A    between atoms: _468  and  _470
REMARK  187  A    between atoms: _470  and  _471
REMARK  188  A    between atoms: _470  and  _473
REMARK  189  A    between atoms: _473  and  _474
REMARK  190  A    between atoms: _480  and  _482
REMARK  191  A    between atoms: _482  and  _483
REMARK  192  A    between atoms: _482  and  _485
REMARK  193  A    between atoms: _485  and  _486
REMARK  194  A    between atoms: _489  and  _491
REMARK  195  A    between atoms: _491  and  _492
REMARK  196  A    between atoms: _491  and  _494
REMARK  197  A    between atoms: _494  and  _495
REMARK  198  A    between atoms: _501  and  _503
REMARK  199  A    between atoms: _503  and  _504
REMARK  200  A    between atoms: _503  and  _506
REMARK  201  A    between atoms: _506  and  _507
REMARK  202  A    between atoms: _510  and  _512
REMARK  203  A    between atoms: _512  and  _513
REMARK  204  A    between atoms: _512  and  _515
REMARK  205  A    between atoms: _515  and  _516
REMARK  206  A    between atoms: _519  and  _521
REMARK  207  A    between atoms: _521  and  _522
REMARK  208  A    between atoms: _525  and  _527
REMARK  209  A    between atoms: _527  and  _528
REMARK  210  A    between atoms: _527  and  _530
REMARK  211  A    between atoms: _530  and  _531
REMARK  212  A    between atoms: _534  and  _536
REMARK  213  A    between atoms: _536  and  _537
REMARK  214  A    between atoms: _536  and  _539
REMARK  215  A    between atoms: _539  and  _540
REMARK  216  A    between atoms: _545  and  _547
REMARK  217  A    between atoms: _547  and  _548
REMARK  218  A    between atoms: _551  and  _553
REMARK  219  A    between atoms: _553  and  _554
REMARK  220  A    between atoms: _553  and  _556
REMARK  221  A    between atoms: _556  and  _557
REMARK  222  A    between atoms: _557  and  _558
REMARK  223  A    between atoms: _560  and  _562
REMARK  224  A    between atoms: _562  and  _563
REMARK  225  A    between atoms: _562  and  _565
REMARK  226  A    between atoms: _565  and  _566
REMARK  227  A    between atoms: _569  and  _571
REMARK  228  A    between atoms: _571  and  _572
REMARK  229  A    between atoms: _571  and  _574
REMARK  230  A    between atoms: _574  and  _575
REMARK  231  A    between atoms: _579  and  _580
REMARK  232  A    between atoms: _585  and  _587
REMARK  233  A    between atoms: _587  and  _588
REMARK  234  A    between atoms: _587  and  _590
REMARK  235  A    between atoms: _590  and  _591
REMARK  236  A    between atoms: _594  and  _596
REMARK  237  A    between atoms: _596  and  _597
REMARK  238  A    between atoms: _599  and  _601
REMARK  239  A    between atoms: _601  and  _602
REMARK  240  A    between atoms: _601  and  _604
REMARK  241  A    between atoms: _604  and  _605
REMARK  242  A    between atoms: _608  and  _610
REMARK  243  A    between atoms: _610  and  _611
REMARK  244  A    between atoms: _610  and  _613
REMARK  245  A    between atoms: _613  and  _614
REMARK  246  A    between atoms: _624  and  _626
REMARK  247  A    between atoms: _626  and  _627
REMARK  248  A    between atoms: _630  and  _632
REMARK  249  A    between atoms: _632  and  _633
REMARK  250  A    between atoms: _632  and  _635
REMARK  251  A    between atoms: _635  and  _636
REMARK  252  A    between atoms: _639  and  _641
REMARK  253  A    between atoms: _641  and  _642
REMARK  254  A    between atoms: _644  and  _646
REMARK  255  A    between atoms: _646  and  _647
REMARK                            x       y       z     vdW  Elec       q    Type
REMARK                         _______ _______ _______ _____ _____    ______ ____
ROOT
ATOM      1  O   HOH     1      -3.938  -2.545  -0.596  0.00  0.00    +0.000 OA
ENDROOT
TORSDOF 0
REMARK  Name = ../refined-set-2016/3d91/3d91_pocket.pdb
REMARK  255 active torsions:
REMARK  status: ('A' for Active; 'I' for Inactive)
REMARK    1  A    between atoms: _1  and  _3
REMARK    2  A    between atoms: _3  and  _4
REMARK    3  A    between atoms: _3  and  _6
REMARK    4  A    between atoms: _6  and  _7
REMARK    5  A    between atoms: _12  and  _13
REMARK    6  A    between atoms: _15  and  _17
REMARK    7  A    between atoms: _17  and  _18
REMARK    8  A    between atoms: _17  and  _20
REMARK    9  A    between atoms: _20  and  _21
REMARK   10  A    between atoms: _24  and  _26
REMARK   11  A    between atoms: _26  and  _27
REMARK   12  A    between atoms: _26  and  _29
REMARK   13  A    between atoms: _29  and  _30
REMARK   14  A    between atoms: _33  and  _35
REMARK   15  A    between atoms: _35  and  _36
REMARK   16  A    between atoms: _35  and  _38
REMARK   17  A    between atoms: _38  and  _39
REMARK   18  A    between atoms: _39  and  _40
REMARK   19  A    between atoms: _45  and  _47
REMARK   20  A    between atoms: _47  and  _48
REMARK   21  A    between atoms: _47  and  _50
REMARK   22  A    between atoms: _50  and  _51
REMARK   23  A    between atoms: _56  and  _57
REMARK   24  A    between atoms: _59  and  _61
REMARK   25  A    between atoms: _61  and  _62
REMARK   26  A    between atoms: _61  and  _64
REMARK   27  A    between atoms: _67  and  _69
REMARK   28  A    between atoms: _69  and  _70
REMARK   29  A    between atoms: _69  and  _72
REMARK   30  A    between atoms: _75  and  _77
REMARK   31  A    between atoms: _77  and  _78
REMARK   32  A    between atoms: _77  and  _80
REMARK   33  A    between atoms: _80  and  _81
REMARK   34  A    between atoms: _87  and  _89
REMARK   35  A    between atoms: _89  and  _90
REMARK   36  A    between atoms: _89  and  _92
REMARK   37  A    between atoms: _92  and  _93
REMARK   38  A    between atoms: _96  and  _98
REMARK   39  A    between atoms: _98  and  _99
REMARK   40  A    between atoms: _98  and  _101
REMARK   41  A    between atoms: _101  and  _102
REMARK   42  A    between atoms: _105  and  _107
REMARK   43  A    between atoms: _107  and  _108
REMARK   44  A    between atoms: _110  and  _112
REMARK   45  A    between atoms: _112  and  _113
REMARK   46  A    between atoms: _112  and  _115
REMARK   47  A    between atoms: _115  and  _116
REMARK   48  A    between atoms: _118  and  _120
REMARK   49  A    between atoms: _120  and  _121
REMARK   50  A    between atoms: _120  and  _123
REMARK   51  A    between atoms: _123  and  _124
REMARK   52  A    between atoms: _126  and  _128
REMARK   53  A    between atoms: _128  and  _129
REMARK   54  A    between atoms: _128  and  _131
REMARK   55  A    between atoms: _131  and  _132
REMARK   56  A    between atoms: _142  and  _144
REMARK   57  A    between atoms: _144  and  _145
REMARK   58  A    between atoms: _144  and  _147
REMARK   59  A    between atoms: _147  and  _148
REMARK   60  A    between atoms: _153  and  _155
REMARK   61  A    between atoms: _155  and  _156
REMARK   62  A    between atoms: _155  and  _158
REMARK   63  A    between atoms: _158  and  _159
REMARK   64  A    between atoms: _162  and  _164
REMARK   65  A    between atoms: _164  and  _165
REMARK   66  A    between atoms: _164  and  _167
REMARK   67  A    between atoms: _167  and  _168
REMARK   68  A    between atoms: _168  and  _169
REMARK   69  A    between atoms: _169  and  _170
REMARK   70  A    between atoms: _179  and  _181
REMARK   71  A    between atoms: _181  and  _182
REMARK   72  A    between atoms: _181  and  _184
REMARK   73  A    between atoms: _184  and  _185
REMARK   74  A    between atoms: _190  and  _191
REMARK   75  A    between atoms: _193  and  _195
REMARK   76  A    between atoms: _195  and  _196
REMARK   77  A    between atoms: _195  and  _198
REMARK   78  A    between atoms: _198  and  _199
REMARK   79  A    between atoms: _201  and  _203
REMARK   80  A    between atoms: _203  and  _204
REMARK   81  A    between atoms: _203  and  _206
REMARK   82  A    between atoms: _206  and  _207
REMARK   83  A    between atoms: _210  and  _212
REMARK   84  A    between atoms: _212  and  _213
REMARK   85  A    between atoms: _215  and  _217
REMARK   86  A    between atoms: _217  and  _218
REMARK   87  A    between atoms: _217  and  _220
REMARK   88  A    between atoms: _220  and  _221
REMARK   89  A    between atoms: _224  and  _226
REMARK   90  A    between atoms: _226  and  _227
REMARK   91  A    between atoms: _226  and  _229
REMARK   92  A    between atoms: _232  and  _234
REMARK   93  A    between atoms: _234  and  _235
REMARK   94  A    between atoms: _238  and  _240
REMARK   95  A    between atoms: _240  and  _241
REMARK   96  A    between atoms: _240  and  _243
REMARK   97  A    between atoms: _243  and  _244
REMARK   98  A    between atoms: _248  and  _249
REMARK   99  A    between atoms: _254  and  _256
REMARK  100  A    between atoms: _256  and  _257
REMARK  101  A    between atoms: _256  and  _259
REMARK  102  A    between atoms: _259  and  _260
REMARK  103  A    between atoms: _266  and  _268
REMARK  104  A    between atoms: _268  and  _269
REMARK  105  A    between atoms: _268  and  _271
REMARK  106  A    between atoms: _271  and  _272
REMARK  107  A    between atoms: _272  and  _273
REMARK  108  A    between atoms: _275  and  _277
REMARK  109  A    between atoms: _277  and  _278
REMARK  110  A    between atoms: _277  and  _280
REMARK  111  A    between atoms: _280  and  _281
REMARK  112  A    between atoms: _284  and  _286
REMARK  113  A    between atoms: _286  and  _287
REMARK  114  A    between atoms: _290  and  _292
REMARK  115  A    between atoms: _292  and  _293
REMARK  116  A    between atoms: _292  and  _295
REMARK  117  A    between atoms: _295  and  _296
REMARK  118  A    between atoms: _296  and  _297
REMARK  119  A    between atoms: _300  and  _302
REMARK  120  A    between atoms: _302  and  _303
REMARK  121  A    between atoms: _302  and  _305
REMARK  122  A    between atoms: _305  and  _306
REMARK  123  A    between atoms: _312  and  _314
REMARK  124  A    between atoms: _314  and  _315
REMARK  125  A    between atoms: _317  and  _319
REMARK  126  A    between atoms: _319  and  _320
REMARK  127  A    between atoms: _319  and  _322
REMARK  128  A    between atoms: _325  and  _327
REMARK  129  A    between atoms: _327  and  _328
REMARK  130  A    between atoms: _327  and  _330
REMARK  131  A    between atoms: _333  and  _335
REMARK  132  A    between atoms: _335  and  _336
REMARK  133  A    between atoms: _335  and  _338
REMARK  134  A    between atoms: _338  and  _339
REMARK  135  A    between atoms: _339  and  _340
REMARK  136  A    between atoms: _342  and  _344
REMARK  137  A    between atoms: _344  and  _345
REMARK  138  A    between atoms: _344  and  _347
REMARK  139  A    between atoms: _347  and  _348
REMARK  140  A    between atoms: _348  and  _349
REMARK  141  A    between atoms: _354  and  _356
REMARK  142  A    between atoms: _356  and  _357
REMARK  143  A    between atoms: _356  and  _359
REMARK  144  A    between atoms: _362  and  _364
REMARK  145  A    between atoms: _364  and  _365
REMARK  146  A    between atoms: _364  and  _367
REMARK  147  A    between atoms: _367  and  _368
REMARK  148  A    between atoms: _378  and  _380
REMARK  149  A    between atoms: _380  and  _381
REMARK  150  A    between atoms: _380  and  _383
REMARK  151  A    between atoms: _383  and  _384
REMARK  152  A    between atoms: _387  and  _389
REMARK  153  A    between atoms: _389  and  _390
REMARK  154  A    between atoms: _389  and  _392
REMARK  155  A    between atoms: _395  and  _397
REMARK  156  A    between atoms: _397  and  _398
REMARK  157  A    between atoms: _397  and  _400
REMARK  158  A    between atoms: _400  and  _401
REMARK  159  A    between atoms: _404  and  _406
REMARK  160  A    between atoms: _406  and  _407
REMARK  161  A    between atoms: _406  and  _409
REMARK  162  A    between atoms: _409  and  _410
REMARK  163  A    between atoms: _413  and  _415
REMARK  164  A    between atoms: _415  and  _416
REMARK  165  A    between atoms: _418  and  _420
REMARK  166  A    between atoms: _420  and  _421
REMARK  167  A    between atoms: _424  and  _426
REMARK  168  A    between atoms: _426  and  _427
REMARK  169  A    between atoms: _426  and  _429
REMARK  170  A    between atoms: _429  and  _430
REMARK  171  A    between atoms: _432  and  _434
REMARK  172  A    between atoms: _434  and  _435
REMARK  173  A    between atoms: _434  and  _437
REMARK  174  A    between atoms: _437  and  _438
REMARK  175  A    between atoms: _443  and  _444
REMARK  176  A    between atoms: _446  and  _448
REMARK  177  A    between atoms: _448  and  _449
REMARK  178  A    between atoms: _448  and  _451
REMARK  179  A    between atoms: _451  and  _452
REMARK  180  A    between atoms: _455  and  _457
REMARK  181  A    between atoms: _457  and  _458
REMARK  182  A    between atoms: _457  and  _460
REMARK  183  A    between atoms: _460  and  _461
REMARK  184  A    between atoms: _463  and  _465
REMARK  185  A    between atoms: _465  and  _466
REMARK  186  A    between atoms: _468  and  _470
REMARK  187  A    between atoms: _470  and  _471
REMARK  188  A    between atoms: _470  and  _473
REMARK  189  A    between atoms: _473  and  _474
REMARK  190  A    between atoms: _480  and  _482
REMARK  191  A    between atoms: _482  and  _483
REMARK  192  A    between atoms: _482  and  _485
REMARK  193  A    between atoms: _485  and  _486
REMARK  194  A    between atoms: _489  and  _491
REMARK  195  A    between atoms: _491  and  _492
REMARK  196  A    between atoms: _491  and  _494
REMARK  197  A    between atoms: _494  and  _495
REMARK  198  A    between atoms: _501  and  _503
REMARK  199  A    between atoms: _503  and  _504
REMARK  200  A    between atoms: _503  and  _506
REMARK  201  A    between atoms: _506  and  _507
REMARK  202  A    between atoms: _510  and  _512
REMARK  203  A    between atoms: _512  and  _513
REMARK  204  A    between atoms: _512  and  _515
REMARK  205  A    between atoms: _515  and  _516
REMARK  206  A    between atoms: _519  and  _521
REMARK  207  A    between atoms: _521  and  _522
REMARK  208  A    between atoms: _525  and  _527
REMARK  209  A    between atoms: _527  and  _528
REMARK  210  A    between atoms: _527  and  _530
REMARK  211  A    between atoms: _530  and  _531
REMARK  212  A    between atoms: _534  and  _536
REMARK  213  A    between atoms: _536  and  _537
REMARK  214  A    between atoms: _536  and  _539
REMARK  215  A    between atoms: _539  and  _540
REMARK  216  A    between atoms: _545  and  _547
REMARK  217  A    between atoms: _547  and  _548
REMARK  218  A    between atoms: _551  and  _553
REMARK  219  A    between atoms: _553  and  _554
REMARK  220  A    between atoms: _553  and  _556
REMARK  221  A    between atoms: _556  and  _557
REMARK  222  A    between atoms: _557  and  _558
REMARK  223  A    between atoms: _560  and  _562
REMARK  224  A    between atoms: _562  and  _563
REMARK  225  A    between atoms: _562  and  _565
REMARK  226  A    between atoms: _565  and  _566
REMARK  227  A    between atoms: _569  and  _571
REMARK  228  A    between atoms: _571  and  _572
REMARK  229  A    between atoms: _571  and  _574
REMARK  230  A    between atoms: _574  and  _575
REMARK  231  A    between atoms: _579  and  _580
REMARK  232  A    between atoms: _585  and  _587
REMARK  233  A    between atoms: _587  and  _588
REMARK  234  A    between atoms: _587  and  _590
REMARK  235  A    between atoms: _590  and  _591
REMARK  236  A    between atoms: _594  and  _596
REMARK  237  A    between atoms: _596  and  _597
REMARK  238  A    between atoms: _599  and  _601
REMARK  239  A    between atoms: _601  and  _602
REMARK  240  A    between atoms: _601  and  _604
REMARK  241  A    between atoms: _604  and  _605
REMARK  242  A    between atoms: _608  and  _610
REMARK  243  A    between atoms: _610  and  _611
REMARK  244  A    between atoms: _610  and  _613
REMARK  245  A    between atoms: _613  and  _614
REMARK  246  A    between atoms: _624  and  _626
REMARK  247  A    between atoms: _626  and  _627
REMARK  248  A    between atoms: _630  and  _632
REMARK  249  A    between atoms: _632  and  _633
REMARK  250  A    between atoms: _632  and  _635
REMARK  251  A    between atoms: _635  and  _636
REMARK  252  A    between atoms: _639  and  _641
REMARK  253  A    between atoms: _641  and  _642
REMARK  254  A    between atoms: _644  and  _646
REMARK  255  A    between atoms: _646  and  _647
REMARK                            x       y       z     vdW  Elec       q    Type
REMARK                         _______ _______ _______ _____ _____    ______ ____
ROOT
ATOM      1  O   HOH     1     -12.089   5.432  -1.507  0.00  0.00    +0.000 OA
ENDROOT
TORSDOF 0
REMARK  Name = ../refined-set-2016/3d91/3d91_pocket.pdb
REMARK  255 active torsions:
REMARK  status: ('A' for Active; 'I' for Inactive)
REMARK    1  A    between atoms: _1  and  _3
REMARK    2  A    between atoms: _3  and  _4
REMARK    3  A    between atoms: _3  and  _6
REMARK    4  A    between atoms: _6  and  _7
REMARK    5  A    between atoms: _12  and  _13
REMARK    6  A    between atoms: _15  and  _17
REMARK    7  A    between atoms: _17  and  _18
REMARK    8  A    between atoms: _17  and  _20
REMARK    9  A    between atoms: _20  and  _21
REMARK   10  A    between atoms: _24  and  _26
REMARK   11  A    between atoms: _26  and  _27
REMARK   12  A    between atoms: _26  and  _29
REMARK   13  A    between atoms: _29  and  _30
REMARK   14  A    between atoms: _33  and  _35
REMARK   15  A    between atoms: _35  and  _36
REMARK   16  A    between atoms: _35  and  _38
REMARK   17  A    between atoms: _38  and  _39
REMARK   18  A    between atoms: _39  and  _40
REMARK   19  A    between atoms: _45  and  _47
REMARK   20  A    between atoms: _47  and  _48
REMARK   21  A    between atoms: _47  and  _50
REMARK   22  A    between atoms: _50  and  _51
REMARK   23  A    between atoms: _56  and  _57
REMARK   24  A    between atoms: _59  and  _61
REMARK   25  A    between atoms: _61  and  _62
REMARK   26  A    between atoms: _61  and  _64
REMARK   27  A    between atoms: _67  and  _69
REMARK   28  A    between atoms: _69  and  _70
REMARK   29  A    between atoms: _69  and  _72
REMARK   30  A    between atoms: _75  and  _77
REMARK   31  A    between atoms: _77  and  _78
REMARK   32  A    between atoms: _77  and  _80
REMARK   33  A    between atoms: _80  and  _81
REMARK   34  A    between atoms: _87  and  _89
REMARK   35  A    between atoms: _89  and  _90
REMARK   36  A    between atoms: _89  and  _92
REMARK   37  A    between atoms: _92  and  _93
REMARK   38  A    between atoms: _96  and  _98
REMARK   39  A    between atoms: _98  and  _99
REMARK   40  A    between atoms: _98  and  _101
REMARK   41  A    between atoms: _101  and  _102
REMARK   42  A    between atoms: _105  and  _107
REMARK   43  A    between atoms: _107  and  _108
REMARK   44  A    between atoms: _110  and  _112
REMARK   45  A    between atoms: _112  and  _113
REMARK   46  A    between atoms: _112  and  _115
REMARK   47  A    between atoms: _115  and  _116
REMARK   48  A    between atoms: _118  and  _120
REMARK   49  A    between atoms: _120  and  _121
REMARK   50  A    between atoms: _120  and  _123
REMARK   51  A    between atoms: _123  and  _124
REMARK   52  A    between atoms: _126  and  _128
REMARK   53  A    between atoms: _128  and  _129
REMARK   54  A    between atoms: _128  and  _131
REMARK   55  A    between atoms: _131  and  _132
REMARK   56  A    between atoms: _142  and  _144
REMARK   57  A    between atoms: _144  and  _145
REMARK   58  A    between atoms: _144  and  _147
REMARK   59  A    between atoms: _147  and  _148
REMARK   60  A    between atoms: _153  and  _155
REMARK   61  A    between atoms: _155  and  _156
REMARK   62  A    between atoms: _155  and  _158
REMARK   63  A    between atoms: _158  and  _159
REMARK   64  A    between atoms: _162  and  _164
REMARK   65  A    between atoms: _164  and  _165
REMARK   66  A    between atoms: _164  and  _167
REMARK   67  A    between atoms: _167  and  _168
REMARK   68  A    between atoms: _168  and  _169
REMARK   69  A    between atoms: _169  and  _170
REMARK   70  A    between atoms: _179  and  _181
REMARK   71  A    between atoms: _181  and  _182
REMARK   72  A    between atoms: _181  and  _184
REMARK   73  A    between atoms: _184  and  _185
REMARK   74  A    between atoms: _190  and  _191
REMARK   75  A    between atoms: _193  and  _195
REMARK   76  A    between atoms: _195  and  _196
REMARK   77  A    between atoms: _195  and  _198
REMARK   78  A    between atoms: _198  and  _199
REMARK   79  A    between atoms: _201  and  _203
REMARK   80  A    between atoms: _203  and  _204
REMARK   81  A    between atoms: _203  and  _206
REMARK   82  A    between atoms: _206  and  _207
REMARK   83  A    between atoms: _210  and  _212
REMARK   84  A    between atoms: _212  and  _213
REMARK   85  A    between atoms: _215  and  _217
REMARK   86  A    between atoms: _217  and  _218
REMARK   87  A    between atoms: _217  and  _220
REMARK   88  A    between atoms: _220  and  _221
REMARK   89  A    between atoms: _224  and  _226
REMARK   90  A    between atoms: _226  and  _227
REMARK   91  A    between atoms: _226  and  _229
REMARK   92  A    between atoms: _232  and  _234
REMARK   93  A    between atoms: _234  and  _235
REMARK   94  A    between atoms: _238  and  _240
REMARK   95  A    between atoms: _240  and  _241
REMARK   96  A    between atoms: _240  and  _243
REMARK   97  A    between atoms: _243  and  _244
REMARK   98  A    between atoms: _248  and  _249
REMARK   99  A    between atoms: _254  and  _256
REMARK  100  A    between atoms: _256  and  _257
REMARK  101  A    between atoms: _256  and  _259
REMARK  102  A    between atoms: _259  and  _260
REMARK  103  A    between atoms: _266  and  _268
REMARK  104  A    between atoms: _268  and  _269
REMARK  105  A    between atoms: _268  and  _271
REMARK  106  A    between atoms: _271  and  _272
REMARK  107  A    between atoms: _272  and  _273
REMARK  108  A    between atoms: _275  and  _277
REMARK  109  A    between atoms: _277  and  _278
REMARK  110  A    between atoms: _277  and  _280
REMARK  111  A    between atoms: _280  and  _281
REMARK  112  A    between atoms: _284  and  _286
REMARK  113  A    between atoms: _286  and  _287
REMARK  114  A    between atoms: _290  and  _292
REMARK  115  A    between atoms: _292  and  _293
REMARK  116  A    between atoms: _292  and  _295
REMARK  117  A    between atoms: _295  and  _296
REMARK  118  A    between atoms: _296  and  _297
REMARK  119  A    between atoms: _300  and  _302
REMARK  120  A    between atoms: _302  and  _303
REMARK  121  A    between atoms: _302  and  _305
REMARK  122  A    between atoms: _305  and  _306
REMARK  123  A    between atoms: _312  and  _314
REMARK  124  A    between atoms: _314  and  _315
REMARK  125  A    between atoms: _317  and  _319
REMARK  126  A    between atoms: _319  and  _320
REMARK  127  A    between atoms: _319  and  _322
REMARK  128  A    between atoms: _325  and  _327
REMARK  129  A    between atoms: _327  and  _328
REMARK  130  A    between atoms: _327  and  _330
REMARK  131  A    between atoms: _333  and  _335
REMARK  132  A    between atoms: _335  and  _336
REMARK  133  A    between atoms: _335  and  _338
REMARK  134  A    between atoms: _338  and  _339
REMARK  135  A    between atoms: _339  and  _340
REMARK  136  A    between atoms: _342  and  _344
REMARK  137  A    between atoms: _344  and  _345
REMARK  138  A    between atoms: _344  and  _347
REMARK  139  A    between atoms: _347  and  _348
REMARK  140  A    between atoms: _348  and  _349
REMARK  141  A    between atoms: _354  and  _356
REMARK  142  A    between atoms: _356  and  _357
REMARK  143  A    between atoms: _356  and  _359
REMARK  144  A    between atoms: _362  and  _364
REMARK  145  A    between atoms: _364  and  _365
REMARK  146  A    between atoms: _364  and  _367
REMARK  147  A    between atoms: _367  and  _368
REMARK  148  A    between atoms: _378  and  _380
REMARK  149  A    between atoms: _380  and  _381
REMARK  150  A    between atoms: _380  and  _383
REMARK  151  A    between atoms: _383  and  _384
REMARK  152  A    between atoms: _387  and  _389
REMARK  153  A    between atoms: _389  and  _390
REMARK  154  A    between atoms: _389  and  _392
REMARK  155  A    between atoms: _395  and  _397
REMARK  156  A    between atoms: _397  and  _398
REMARK  157  A    between atoms: _397  and  _400
REMARK  158  A    between atoms: _400  and  _401
REMARK  159  A    between atoms: _404  and  _406
REMARK  160  A    between atoms: _406  and  _407
REMARK  161  A    between atoms: _406  and  _409
REMARK  162  A    between atoms: _409  and  _410
REMARK  163  A    between atoms: _413  and  _415
REMARK  164  A    between atoms: _415  and  _416
REMARK  165  A    between atoms: _418  and  _420
REMARK  166  A    between atoms: _420  and  _421
REMARK  167  A    between atoms: _424  and  _426
REMARK  168  A    between atoms: _426  and  _427
REMARK  169  A    between atoms: _426  and  _429
REMARK  170  A    between atoms: _429  and  _430
REMARK  171  A    between atoms: _432  and  _434
REMARK  172  A    between atoms: _434  and  _435
REMARK  173  A    between atoms: _434  and  _437
REMARK  174  A    between atoms: _437  and  _438
REMARK  175  A    between atoms: _443  and  _444
REMARK  176  A    between atoms: _446  and  _448
REMARK  177  A    between atoms: _448  and  _449
REMARK  178  A    between atoms: _448  and  _451
REMARK  179  A    between atoms: _451  and  _452
REMARK  180  A    between atoms: _455  and  _457
REMARK  181  A    between atoms: _457  and  _458
REMARK  182  A    between atoms: _457  and  _460
REMARK  183  A    between atoms: _460  and  _461
REMARK  184  A    between atoms: _463  and  _465
REMARK  185  A    between atoms: _465  and  _466
REMARK  186  A    between atoms: _468  and  _470
REMARK  187  A    between atoms: _470  and  _471
REMARK  188  A    between atoms: _470  and  _473
REMARK  189  A    between atoms: _473  and  _474
REMARK  190  A    between atoms: _480  and  _482
REMARK  191  A    between atoms: _482  and  _483
REMARK  192  A    between atoms: _482  and  _485
REMARK  193  A    between atoms: _485  and  _486
REMARK  194  A    between atoms: _489  and  _491
REMARK  195  A    between atoms: _491  and  _492
REMARK  196  A    between atoms: _491  and  _494
REMARK  197  A    between atoms: _494  and  _495
REMARK  198  A    between atoms: _501  and  _503
REMARK  199  A    between atoms: _503  and  _504
REMARK  200  A    between atoms: _503  and  _506
REMARK  201  A    between atoms: _506  and  _507
REMARK  202  A    between atoms: _510  and  _512
REMARK  203  A    between atoms: _512  and  _513
REMARK  204  A    between atoms: _512  and  _515
REMARK  205  A    between atoms: _515  and  _516
REMARK  206  A    between atoms: _519  and  _521
REMARK  207  A    between atoms: _521  and  _522
REMARK  208  A    between atoms: _525  and  _527
REMARK  209  A    between atoms: _527  and  _528
REMARK  210  A    between atoms: _527  and  _530
REMARK  211  A    between atoms: _530  and  _531
REMARK  212  A    between atoms: _534  and  _536
REMARK  213  A    between atoms: _536  and  _537
REMARK  214  A    between atoms: _536  and  _539
REMARK  215  A    between atoms: _539  and  _540
REMARK  216  A    between atoms: _545  and  _547
REMARK  217  A    between atoms: _547  and  _548
REMARK  218  A    between atoms: _551  and  _553
REMARK  219  A    between atoms: _553  and  _554
REMARK  220  A    between atoms: _553  and  _556
REMARK  221  A    between atoms: _556  and  _557
REMARK  222  A    between atoms: _557  and  _558
REMARK  223  A    between atoms: _560  and  _562
REMARK  224  A    between atoms: _562  and  _563
REMARK  225  A    between atoms: _562  and  _565
REMARK  226  A    between atoms: _565  and  _566
REMARK  227  A    between atoms: _569  and  _571
REMARK  228  A    between atoms: _571  and  _572
REMARK  229  A    between atoms: _571  and  _574
REMARK  230  A    between atoms: _574  and  _575
REMARK  231  A    between atoms: _579  and  _580
REMARK  232  A    between atoms: _585  and  _587
REMARK  233  A    between atoms: _587  and  _588
REMARK  234  A    between atoms: _587  and  _590
REMARK  235  A    between atoms: _590  and  _591
REMARK  236  A    between atoms: _594  and  _596
REMARK  237  A    between atoms: _596  and  _597
REMARK  238  A    between atoms: _599  and  _601
REMARK  239  A    between atoms: _601  and  _602
REMARK  240  A    between atoms: _601  and  _604
REMARK  241  A    between atoms: _604  and  _605
REMARK  242  A    between atoms: _608  and  _610
REMARK  243  A    between atoms: _610  and  _611
REMARK  244  A    between atoms: _610  and  _613
REMARK  245  A    between atoms: _613  and  _614
REMARK  246  A    between atoms: _624  and  _626
REMARK  247  A    between atoms: _626  and  _627
REMARK  248  A    between atoms: _630  and  _632
REMARK  249  A    between atoms: _632  and  _633
REMARK  250  A    between atoms: _632  and  _635
REMARK  251  A    between atoms: _635  and  _636
REMARK  252  A    between atoms: _639  and  _641
REMARK  253  A    between atoms: _641  and  _642
REMARK  254  A    between atoms: _644  and  _646
REMARK  255  A    between atoms: _646  and  _647
REMARK                            x       y       z     vdW  Elec       q    Type
REMARK                         _______ _______ _______ _____ _____    ______ ____
ROOT
ATOM      1  O   HOH     1     -15.786  -0.128  -3.698  0.00  0.00    +0.000 OA
ENDROOT
TORSDOF 0
REMARK  Name = ../refined-set-2016/3d91/3d91_pocket.pdb
REMARK  255 active torsions:
REMARK  status: ('A' for Active; 'I' for Inactive)
REMARK    1  A    between atoms: _1  and  _3
REMARK    2  A    between atoms: _3  and  _4
REMARK    3  A    between atoms: _3  and  _6
REMARK    4  A    between atoms: _6  and  _7
REMARK    5  A    between atoms: _12  and  _13
REMARK    6  A    between atoms: _15  and  _17
REMARK    7  A    between atoms: _17  and  _18
REMARK    8  A    between atoms: _17  and  _20
REMARK    9  A    between atoms: _20  and  _21
REMARK   10  A    between atoms: _24  and  _26
REMARK   11  A    between atoms: _26  and  _27
REMARK   12  A    between atoms: _26  and  _29
REMARK   13  A    between atoms: _29  and  _30
REMARK   14  A    between atoms: _33  and  _35
REMARK   15  A    between atoms: _35  and  _36
REMARK   16  A    between atoms: _35  and  _38
REMARK   17  A    between atoms: _38  and  _39
REMARK   18  A    between atoms: _39  and  _40
REMARK   19  A    between atoms: _45  and  _47
REMARK   20  A    between atoms: _47  and  _48
REMARK   21  A    between atoms: _47  and  _50
REMARK   22  A    between atoms: _50  and  _51
REMARK   23  A    between atoms: _56  and  _57
REMARK   24  A    between atoms: _59  and  _61
REMARK   25  A    between atoms: _61  and  _62
REMARK   26  A    between atoms: _61  and  _64
REMARK   27  A    between atoms: _67  and  _69
REMARK   28  A    between atoms: _69  and  _70
REMARK   29  A    between atoms: _69  and  _72
REMARK   30  A    between atoms: _75  and  _77
REMARK   31  A    between atoms: _77  and  _78
REMARK   32  A    between atoms: _77  and  _80
REMARK   33  A    between atoms: _80  and  _81
REMARK   34  A    between atoms: _87  and  _89
REMARK   35  A    between atoms: _89  and  _90
REMARK   36  A    between atoms: _89  and  _92
REMARK   37  A    between atoms: _92  and  _93
REMARK   38  A    between atoms: _96  and  _98
REMARK   39  A    between atoms: _98  and  _99
REMARK   40  A    between atoms: _98  and  _101
REMARK   41  A    between atoms: _101  and  _102
REMARK   42  A    between atoms: _105  and  _107
REMARK   43  A    between atoms: _107  and  _108
REMARK   44  A    between atoms: _110  and  _112
REMARK   45  A    between atoms: _112  and  _113
REMARK   46  A    between atoms: _112  and  _115
REMARK   47  A    between atoms: _115  and  _116
REMARK   48  A    between atoms: _118  and  _120
REMARK   49  A    between atoms: _120  and  _121
REMARK   50  A    between atoms: _120  and  _123
REMARK   51  A    between atoms: _123  and  _124
REMARK   52  A    between atoms: _126  and  _128
REMARK   53  A    between atoms: _128  and  _129
REMARK   54  A    between atoms: _128  and  _131
REMARK   55  A    between atoms: _131  and  _132
REMARK   56  A    between atoms: _142  and  _144
REMARK   57  A    between atoms: _144  and  _145
REMARK   58  A    between atoms: _144  and  _147
REMARK   59  A    between atoms: _147  and  _148
REMARK   60  A    between atoms: _153  and  _155
REMARK   61  A    between atoms: _155  and  _156
REMARK   62  A    between atoms: _155  and  _158
REMARK   63  A    between atoms: _158  and  _159
REMARK   64  A    between atoms: _162  and  _164
REMARK   65  A    between atoms: _164  and  _165
REMARK   66  A    between atoms: _164  and  _167
REMARK   67  A    between atoms: _167  and  _168
REMARK   68  A    between atoms: _168  and  _169
REMARK   69  A    between atoms: _169  and  _170
REMARK   70  A    between atoms: _179  and  _181
REMARK   71  A    between atoms: _181  and  _182
REMARK   72  A    between atoms: _181  and  _184
REMARK   73  A    between atoms: _184  and  _185
REMARK   74  A    between atoms: _190  and  _191
REMARK   75  A    between atoms: _193  and  _195
REMARK   76  A    between atoms: _195  and  _196
REMARK   77  A    between atoms: _195  and  _198
REMARK   78  A    between atoms: _198  and  _199
REMARK   79  A    between atoms: _201  and  _203
REMARK   80  A    between atoms: _203  and  _204
REMARK   81  A    between atoms: _203  and  _206
REMARK   82  A    between atoms: _206  and  _207
REMARK   83  A    between atoms: _210  and  _212
REMARK   84  A    between atoms: _212  and  _213
REMARK   85  A    between atoms: _215  and  _217
REMARK   86  A    between atoms: _217  and  _218
REMARK   87  A    between atoms: _217  and  _220
REMARK   88  A    between atoms: _220  and  _221
REMARK   89  A    between atoms: _224  and  _226
REMARK   90  A    between atoms: _226  and  _227
REMARK   91  A    between atoms: _226  and  _229
REMARK   92  A    between atoms: _232  and  _234
REMARK   93  A    between atoms: _234  and  _235
REMARK   94  A    between atoms: _238  and  _240
REMARK   95  A    between atoms: _240  and  _241
REMARK   96  A    between atoms: _240  and  _243
REMARK   97  A    between atoms: _243  and  _244
REMARK   98  A    between atoms: _248  and  _249
REMARK   99  A    between atoms: _254  and  _256
REMARK  100  A    between atoms: _256  and  _257
REMARK  101  A    between atoms: _256  and  _259
REMARK  102  A    between atoms: _259  and  _260
REMARK  103  A    between atoms: _266  and  _268
REMARK  104  A    between atoms: _268  and  _269
REMARK  105  A    between atoms: _268  and  _271
REMARK  106  A    between atoms: _271  and  _272
REMARK  107  A    between atoms: _272  and  _273
REMARK  108  A    between atoms: _275  and  _277
REMARK  109  A    between atoms: _277  and  _278
REMARK  110  A    between atoms: _277  and  _280
REMARK  111  A    between atoms: _280  and  _281
REMARK  112  A    between atoms: _284  and  _286
REMARK  113  A    between atoms: _286  and  _287
REMARK  114  A    between atoms: _290  and  _292
REMARK  115  A    between atoms: _292  and  _293
REMARK  116  A    between atoms: _292  and  _295
REMARK  117  A    between atoms: _295  and  _296
REMARK  118  A    between atoms: _296  and  _297
REMARK  119  A    between atoms: _300  and  _302
REMARK  120  A    between atoms: _302  and  _303
REMARK  121  A    between atoms: _302  and  _305
REMARK  122  A    between atoms: _305  and  _306
REMARK  123  A    between atoms: _312  and  _314
REMARK  124  A    between atoms: _314  and  _315
REMARK  125  A    between atoms: _317  and  _319
REMARK  126  A    between atoms: _319  and  _320
REMARK  127  A    between atoms: _319  and  _322
REMARK  128  A    between atoms: _325  and  _327
REMARK  129  A    between atoms: _327  and  _328
REMARK  130  A    between atoms: _327  and  _330
REMARK  131  A    between atoms: _333  and  _335
REMARK  132  A    between atoms: _335  and  _336
REMARK  133  A    between atoms: _335  and  _338
REMARK  134  A    between atoms: _338  and  _339
REMARK  135  A    between atoms: _339  and  _340
REMARK  136  A    between atoms: _342  and  _344
REMARK  137  A    between atoms: _344  and  _345
REMARK  138  A    between atoms: _344  and  _347
REMARK  139  A    between atoms: _347  and  _348
REMARK  140  A    between atoms: _348  and  _349
REMARK  141  A    between atoms: _354  and  _356
REMARK  142  A    between atoms: _356  and  _357
REMARK  143  A    between atoms: _356  and  _359
REMARK  144  A    between atoms: _362  and  _364
REMARK  145  A    between atoms: _364  and  _365
REMARK  146  A    between atoms: _364  and  _367
REMARK  147  A    between atoms: _367  and  _368
REMARK  148  A    between atoms: _378  and  _380
REMARK  149  A    between atoms: _380  and  _381
REMARK  150  A    between atoms: _380  and  _383
REMARK  151  A    between atoms: _383  and  _384
REMARK  152  A    between atoms: _387  and  _389
REMARK  153  A    between atoms: _389  and  _390
REMARK  154  A    between atoms: _389  and  _392
REMARK  155  A    between atoms: _395  and  _397
REMARK  156  A    between atoms: _397  and  _398
REMARK  157  A    between atoms: _397  and  _400
REMARK  158  A    between atoms: _400  and  _401
REMARK  159  A    between atoms: _404  and  _406
REMARK  160  A    between atoms: _406  and  _407
REMARK  161  A    between atoms: _406  and  _409
REMARK  162  A    between atoms: _409  and  _410
REMARK  163  A    between atoms: _413  and  _415
REMARK  164  A    between atoms: _415  and  _416
REMARK  165  A    between atoms: _418  and  _420
REMARK  166  A    between atoms: _420  and  _421
REMARK  167  A    between atoms: _424  and  _426
REMARK  168  A    between atoms: _426  and  _427
REMARK  169  A    between atoms: _426  and  _429
REMARK  170  A    between atoms: _429  and  _430
REMARK  171  A    between atoms: _432  and  _434
REMARK  172  A    between atoms: _434  and  _435
REMARK  173  A    between atoms: _434  and  _437
REMARK  174  A    between atoms: _437  and  _438
REMARK  175  A    between atoms: _443  and  _444
REMARK  176  A    between atoms: _446  and  _448
REMARK  177  A    between atoms: _448  and  _449
REMARK  178  A    between atoms: _448  and  _451
REMARK  179  A    between atoms: _451  and  _452
REMARK  180  A    between atoms: _455  and  _457
REMARK  181  A    between atoms: _457  and  _458
REMARK  182  A    between atoms: _457  and  _460
REMARK  183  A    between atoms: _460  and  _461
REMARK  184  A    between atoms: _463  and  _465
REMARK  185  A    between atoms: _465  and  _466
REMARK  186  A    between atoms: _468  and  _470
REMARK  187  A    between atoms: _470  and  _471
REMARK  188  A    between atoms: _470  and  _473
REMARK  189  A    between atoms: _473  and  _474
REMARK  190  A    between atoms: _480  and  _482
REMARK  191  A    between atoms: _482  and  _483
REMARK  192  A    between atoms: _482  and  _485
REMARK  193  A    between atoms: _485  and  _486
REMARK  194  A    between atoms: _489  and  _491
REMARK  195  A    between atoms: _491  and  _492
REMARK  196  A    between atoms: _491  and  _494
REMARK  197  A    between atoms: _494  and  _495
REMARK  198  A    between atoms: _501  and  _503
REMARK  199  A    between atoms: _503  and  _504
REMARK  200  A    between atoms: _503  and  _506
REMARK  201  A    between atoms: _506  and  _507
REMARK  202  A    between atoms: _510  and  _512
REMARK  203  A    between atoms: _512  and  _513
REMARK  204  A    between atoms: _512  and  _515
REMARK  205  A    between atoms: _515  and  _516
REMARK  206  A    between atoms: _519  and  _521
REMARK  207  A    between atoms: _521  and  _522
REMARK  208  A    between atoms: _525  and  _527
REMARK  209  A    between atoms: _527  and  _528
REMARK  210  A    between atoms: _527  and  _530
REMARK  211  A    between atoms: _530  and  _531
REMARK  212  A    between atoms: _534  and  _536
REMARK  213  A    between atoms: _536  and  _537
REMARK  214  A    between atoms: _536  and  _539
REMARK  215  A    between atoms: _539  and  _540
REMARK  216  A    between atoms: _545  and  _547
REMARK  217  A    between atoms: _547  and  _548
REMARK  218  A    between atoms: _551  and  _553
REMARK  219  A    between atoms: _553  and  _554
REMARK  220  A    between atoms: _553  and  _556
REMARK  221  A    between atoms: _556  and  _557
REMARK  222  A    between atoms: _557  and  _558
REMARK  223  A    between atoms: _560  and  _562
REMARK  224  A    between atoms: _562  and  _563
REMARK  225  A    between atoms: _562  and  _565
REMARK  226  A    between atoms: _565  and  _566
REMARK  227  A    between atoms: _569  and  _571
REMARK  228  A    between atoms: _571  and  _572
REMARK  229  A    between atoms: _571  and  _574
REMARK  230  A    between atoms: _574  and  _575
REMARK  231  A    between atoms: _579  and  _580
REMARK  232  A    between atoms: _585  and  _587
REMARK  233  A    between atoms: _587  and  _588
REMARK  234  A    between atoms: _587  and  _590
REMARK  235  A    between atoms: _590  and  _591
REMARK  236  A    between atoms: _594  and  _596
REMARK  237  A    between atoms: _596  and  _597
REMARK  238  A    between atoms: _599  and  _601
REMARK  239  A    between atoms: _601  and  _602
REMARK  240  A    between atoms: _601  and  _604
REMARK  241  A    between atoms: _604  and  _605
REMARK  242  A    between atoms: _608  and  _610
REMARK  243  A    between atoms: _610  and  _611
REMARK  244  A    between atoms: _610  and  _613
REMARK  245  A    between atoms: _613  and  _614
REMARK  246  A    between atoms: _624  and  _626
REMARK  247  A    between atoms: _626  and  _627
REMARK  248  A    between atoms: _630  and  _632
REMARK  249  A    between atoms: _632  and  _633
REMARK  250  A    between atoms: _632  and  _635
REMARK  251  A    between atoms: _635  and  _636
REMARK  252  A    between atoms: _639  and  _641
REMARK  253  A    between atoms: _641  and  _642
REMARK  254  A    between atoms: _644  and  _646
REMARK  255  A    between atoms: _646  and  _647
REMARK                            x       y       z     vdW  Elec       q    Type
REMARK                         _______ _______ _______ _____ _____    ______ ____
ROOT
ATOM      1  O   HOH     1       7.139   7.184 -13.482  0.00  0.00    +0.000 OA
ENDROOT
TORSDOF 0
REMARK  Name = ../refined-set-2016/3d91/3d91_pocket.pdb
REMARK  255 active torsions:
REMARK  status: ('A' for Active; 'I' for Inactive)
REMARK    1  A    between atoms: _1  and  _3
REMARK    2  A    between atoms: _3  and  _4
REMARK    3  A    between atoms: _3  and  _6
REMARK    4  A    between atoms: _6  and  _7
REMARK    5  A    between atoms: _12  and  _13
REMARK    6  A    between atoms: _15  and  _17
REMARK    7  A    between atoms: _17  and  _18
REMARK    8  A    between atoms: _17  and  _20
REMARK    9  A    between atoms: _20  and  _21
REMARK   10  A    between atoms: _24  and  _26
REMARK   11  A    between atoms: _26  and  _27
REMARK   12  A    between atoms: _26  and  _29
REMARK   13  A    between atoms: _29  and  _30
REMARK   14  A    between atoms: _33  and  _35
REMARK   15  A    between atoms: _35  and  _36
REMARK   16  A    between atoms: _35  and  _38
REMARK   17  A    between atoms: _38  and  _39
REMARK   18  A    between atoms: _39  and  _40
REMARK   19  A    between atoms: _45  and  _47
REMARK   20  A    between atoms: _47  and  _48
REMARK   21  A    between atoms: _47  and  _50
REMARK   22  A    between atoms: _50  and  _51
REMARK   23  A    between atoms: _56  and  _57
REMARK   24  A    between atoms: _59  and  _61
REMARK   25  A    between atoms: _61  and  _62
REMARK   26  A    between atoms: _61  and  _64
REMARK   27  A    between atoms: _67  and  _69
REMARK   28  A    between atoms: _69  and  _70
REMARK   29  A    between atoms: _69  and  _72
REMARK   30  A    between atoms: _75  and  _77
REMARK   31  A    between atoms: _77  and  _78
REMARK   32  A    between atoms: _77  and  _80
REMARK   33  A    between atoms: _80  and  _81
REMARK   34  A    between atoms: _87  and  _89
REMARK   35  A    between atoms: _89  and  _90
REMARK   36  A    between atoms: _89  and  _92
REMARK   37  A    between atoms: _92  and  _93
REMARK   38  A    between atoms: _96  and  _98
REMARK   39  A    between atoms: _98  and  _99
REMARK   40  A    between atoms: _98  and  _101
REMARK   41  A    between atoms: _101  and  _102
REMARK   42  A    between atoms: _105  and  _107
REMARK   43  A    between atoms: _107  and  _108
REMARK   44  A    between atoms: _110  and  _112
REMARK   45  A    between atoms: _112  and  _113
REMARK   46  A    between atoms: _112  and  _115
REMARK   47  A    between atoms: _115  and  _116
REMARK   48  A    between atoms: _118  and  _120
REMARK   49  A    between atoms: _120  and  _121
REMARK   50  A    between atoms: _120  and  _123
REMARK   51  A    between atoms: _123  and  _124
REMARK   52  A    between atoms: _126  and  _128
REMARK   53  A    between atoms: _128  and  _129
REMARK   54  A    between atoms: _128  and  _131
REMARK   55  A    between atoms: _131  and  _132
REMARK   56  A    between atoms: _142  and  _144
REMARK   57  A    between atoms: _144  and  _145
REMARK   58  A    between atoms: _144  and  _147
REMARK   59  A    between atoms: _147  and  _148
REMARK   60  A    between atoms: _153  and  _155
REMARK   61  A    between atoms: _155  and  _156
REMARK   62  A    between atoms: _155  and  _158
REMARK   63  A    between atoms: _158  and  _159
REMARK   64  A    between atoms: _162  and  _164
REMARK   65  A    between atoms: _164  and  _165
REMARK   66  A    between atoms: _164  and  _167
REMARK   67  A    between atoms: _167  and  _168
REMARK   68  A    between atoms: _168  and  _169
REMARK   69  A    between atoms: _169  and  _170
REMARK   70  A    between atoms: _179  and  _181
REMARK   71  A    between atoms: _181  and  _182
REMARK   72  A    between atoms: _181  and  _184
REMARK   73  A    between atoms: _184  and  _185
REMARK   74  A    between atoms: _190  and  _191
REMARK   75  A    between atoms: _193  and  _195
REMARK   76  A    between atoms: _195  and  _196
REMARK   77  A    between atoms: _195  and  _198
REMARK   78  A    between atoms: _198  and  _199
REMARK   79  A    between atoms: _201  and  _203
REMARK   80  A    between atoms: _203  and  _204
REMARK   81  A    between atoms: _203  and  _206
REMARK   82  A    between atoms: _206  and  _207
REMARK   83  A    between atoms: _210  and  _212
REMARK   84  A    between atoms: _212  and  _213
REMARK   85  A    between atoms: _215  and  _217
REMARK   86  A    between atoms: _217  and  _218
REMARK   87  A    between atoms: _217  and  _220
REMARK   88  A    between atoms: _220  and  _221
REMARK   89  A    between atoms: _224  and  _226
REMARK   90  A    between atoms: _226  and  _227
REMARK   91  A    between atoms: _226  and  _229
REMARK   92  A    between atoms: _232  and  _234
REMARK   93  A    between atoms: _234  and  _235
REMARK   94  A    between atoms: _238  and  _240
REMARK   95  A    between atoms: _240  and  _241
REMARK   96  A    between atoms: _240  and  _243
REMARK   97  A    between atoms: _243  and  _244
REMARK   98  A    between atoms: _248  and  _249
REMARK   99  A    between atoms: _254  and  _256
REMARK  100  A    between atoms: _256  and  _257
REMARK  101  A    between atoms: _256  and  _259
REMARK  102  A    between atoms: _259  and  _260
REMARK  103  A    between atoms: _266  and  _268
REMARK  104  A    between atoms: _268  and  _269
REMARK  105  A    between atoms: _268  and  _271
REMARK  106  A    between atoms: _271  and  _272
REMARK  107  A    between atoms: _272  and  _273
REMARK  108  A    between atoms: _275  and  _277
REMARK  109  A    between atoms: _277  and  _278
REMARK  110  A    between atoms: _277  and  _280
REMARK  111  A    between atoms: _280  and  _281
REMARK  112  A    between atoms: _284  and  _286
REMARK  113  A    between atoms: _286  and  _287
REMARK  114  A    between atoms: _290  and  _292
REMARK  115  A    between atoms: _292  and  _293
REMARK  116  A    between atoms: _292  and  _295
REMARK  117  A    between atoms: _295  and  _296
REMARK  118  A    between atoms: _296  and  _297
REMARK  119  A    between atoms: _300  and  _302
REMARK  120  A    between atoms: _302  and  _303
REMARK  121  A    between atoms: _302  and  _305
REMARK  122  A    between atoms: _305  and  _306
REMARK  123  A    between atoms: _312  and  _314
REMARK  124  A    between atoms: _314  and  _315
REMARK  125  A    between atoms: _317  and  _319
REMARK  126  A    between atoms: _319  and  _320
REMARK  127  A    between atoms: _319  and  _322
REMARK  128  A    between atoms: _325  and  _327
REMARK  129  A    between atoms: _327  and  _328
REMARK  130  A    between atoms: _327  and  _330
REMARK  131  A    between atoms: _333  and  _335
REMARK  132  A    between atoms: _335  and  _336
REMARK  133  A    between atoms: _335  and  _338
REMARK  134  A    between atoms: _338  and  _339
REMARK  135  A    between atoms: _339  and  _340
REMARK  136  A    between atoms: _342  and  _344
REMARK  137  A    between atoms: _344  and  _345
REMARK  138  A    between atoms: _344  and  _347
REMARK  139  A    between atoms: _347  and  _348
REMARK  140  A    between atoms: _348  and  _349
REMARK  141  A    between atoms: _354  and  _356
REMARK  142  A    between atoms: _356  and  _357
REMARK  143  A    between atoms: _356  and  _359
REMARK  144  A    between atoms: _362  and  _364
REMARK  145  A    between atoms: _364  and  _365
REMARK  146  A    between atoms: _364  and  _367
REMARK  147  A    between atoms: _367  and  _368
REMARK  148  A    between atoms: _378  and  _380
REMARK  149  A    between atoms: _380  and  _381
REMARK  150  A    between atoms: _380  and  _383
REMARK  151  A    between atoms: _383  and  _384
REMARK  152  A    between atoms: _387  and  _389
REMARK  153  A    between atoms: _389  and  _390
REMARK  154  A    between atoms: _389  and  _392
REMARK  155  A    between atoms: _395  and  _397
REMARK  156  A    between atoms: _397  and  _398
REMARK  157  A    between atoms: _397  and  _400
REMARK  158  A    between atoms: _400  and  _401
REMARK  159  A    between atoms: _404  and  _406
REMARK  160  A    between atoms: _406  and  _407
REMARK  161  A    between atoms: _406  and  _409
REMARK  162  A    between atoms: _409  and  _410
REMARK  163  A    between atoms: _413  and  _415
REMARK  164  A    between atoms: _415  and  _416
REMARK  165  A    between atoms: _418  and  _420
REMARK  166  A    between atoms: _420  and  _421
REMARK  167  A    between atoms: _424  and  _426
REMARK  168  A    between atoms: _426  and  _427
REMARK  169  A    between atoms: _426  and  _429
REMARK  170  A    between atoms: _429  and  _430
REMARK  171  A    between atoms: _432  and  _434
REMARK  172  A    between atoms: _434  and  _435
REMARK  173  A    between atoms: _434  and  _437
REMARK  174  A    between atoms: _437  and  _438
REMARK  175  A    between atoms: _443  and  _444
REMARK  176  A    between atoms: _446  and  _448
REMARK  177  A    between atoms: _448  and  _449
REMARK  178  A    between atoms: _448  and  _451
REMARK  179  A    between atoms: _451  and  _452
REMARK  180  A    between atoms: _455  and  _457
REMARK  181  A    between atoms: _457  and  _458
REMARK  182  A    between atoms: _457  and  _460
REMARK  183  A    between atoms: _460  and  _461
REMARK  184  A    between atoms: _463  and  _465
REMARK  185  A    between atoms: _465  and  _466
REMARK  186  A    between atoms: _468  and  _470
REMARK  187  A    between atoms: _470  and  _471
REMARK  188  A    between atoms: _470  and  _473
REMARK  189  A    between atoms: _473  and  _474
REMARK  190  A    between atoms: _480  and  _482
REMARK  191  A    between atoms: _482  and  _483
REMARK  192  A    between atoms: _482  and  _485
REMARK  193  A    between atoms: _485  and  _486
REMARK  194  A    between atoms: _489  and  _491
REMARK  195  A    between atoms: _491  and  _492
REMARK  196  A    between atoms: _491  and  _494
REMARK  197  A    between atoms: _494  and  _495
REMARK  198  A    between atoms: _501  and  _503
REMARK  199  A    between atoms: _503  and  _504
REMARK  200  A    between atoms: _503  and  _506
REMARK  201  A    between atoms: _506  and  _507
REMARK  202  A    between atoms: _510  and  _512
REMARK  203  A    between atoms: _512  and  _513
REMARK  204  A    between atoms: _512  and  _515
REMARK  205  A    between atoms: _515  and  _516
REMARK  206  A    between atoms: _519  and  _521
REMARK  207  A    between atoms: _521  and  _522
REMARK  208  A    between atoms: _525  and  _527
REMARK  209  A    between atoms: _527  and  _528
REMARK  210  A    between atoms: _527  and  _530
REMARK  211  A    between atoms: _530  and  _531
REMARK  212  A    between atoms: _534  and  _536
REMARK  213  A    between atoms: _536  and  _537
REMARK  214  A    between atoms: _536  and  _539
REMARK  215  A    between atoms: _539  and  _540
REMARK  216  A    between atoms: _545  and  _547
REMARK  217  A    between atoms: _547  and  _548
REMARK  218  A    between atoms: _551  and  _553
REMARK  219  A    between atoms: _553  and  _554
REMARK  220  A    between atoms: _553  and  _556
REMARK  221  A    between atoms: _556  and  _557
REMARK  222  A    between atoms: _557  and  _558
REMARK  223  A    between atoms: _560  and  _562
REMARK  224  A    between atoms: _562  and  _563
REMARK  225  A    between atoms: _562  and  _565
REMARK  226  A    between atoms: _565  and  _566
REMARK  227  A    between atoms: _569  and  _571
REMARK  228  A    between atoms: _571  and  _572
REMARK  229  A    between atoms: _571  and  _574
REMARK  230  A    between atoms: _574  and  _575
REMARK  231  A    between atoms: _579  and  _580
REMARK  232  A    between atoms: _585  and  _587
REMARK  233  A    between atoms: _587  and  _588
REMARK  234  A    between atoms: _587  and  _590
REMARK  235  A    between atoms: _590  and  _591
REMARK  236  A    between atoms: _594  and  _596
REMARK  237  A    between atoms: _596  and  _597
REMARK  238  A    between atoms: _599  and  _601
REMARK  239  A    between atoms: _601  and  _602
REMARK  240  A    between atoms: _601  and  _604
REMARK  241  A    between atoms: _604  and  _605
REMARK  242  A    between atoms: _608  and  _610
REMARK  243  A    between atoms: _610  and  _611
REMARK  244  A    between atoms: _610  and  _613
REMARK  245  A    between atoms: _613  and  _614
REMARK  246  A    between atoms: _624  and  _626
REMARK  247  A    between atoms: _626  and  _627
REMARK  248  A    between atoms: _630  and  _632
REMARK  249  A    between atoms: _632  and  _633
REMARK  250  A    between atoms: _632  and  _635
REMARK  251  A    between atoms: _635  and  _636
REMARK  252  A    between atoms: _639  and  _641
REMARK  253  A    between atoms: _641  and  _642
REMARK  254  A    between atoms: _644  and  _646
REMARK  255  A    between atoms: _646  and  _647
REMARK                            x       y       z     vdW  Elec       q    Type
REMARK                         _______ _______ _______ _____ _____    ______ ____
ROOT
ATOM      1  O   HOH     1       7.092   4.105 -13.993  0.00  0.00    +0.000 OA
ENDROOT
TORSDOF 0
REMARK  Name = ../refined-set-2016/3d91/3d91_pocket.pdb
REMARK  255 active torsions:
REMARK  status: ('A' for Active; 'I' for Inactive)
REMARK    1  A    between atoms: _1  and  _3
REMARK    2  A    between atoms: _3  and  _4
REMARK    3  A    between atoms: _3  and  _6
REMARK    4  A    between atoms: _6  and  _7
REMARK    5  A    between atoms: _12  and  _13
REMARK    6  A    between atoms: _15  and  _17
REMARK    7  A    between atoms: _17  and  _18
REMARK    8  A    between atoms: _17  and  _20
REMARK    9  A    between atoms: _20  and  _21
REMARK   10  A    between atoms: _24  and  _26
REMARK   11  A    between atoms: _26  and  _27
REMARK   12  A    between atoms: _26  and  _29
REMARK   13  A    between atoms: _29  and  _30
REMARK   14  A    between atoms: _33  and  _35
REMARK   15  A    between atoms: _35  and  _36
REMARK   16  A    between atoms: _35  and  _38
REMARK   17  A    between atoms: _38  and  _39
REMARK   18  A    between atoms: _39  and  _40
REMARK   19  A    between atoms: _45  and  _47
REMARK   20  A    between atoms: _47  and  _48
REMARK   21  A    between atoms: _47  and  _50
REMARK   22  A    between atoms: _50  and  _51
REMARK   23  A    between atoms: _56  and  _57
REMARK   24  A    between atoms: _59  and  _61
REMARK   25  A    between atoms: _61  and  _62
REMARK   26  A    between atoms: _61  and  _64
REMARK   27  A    between atoms: _67  and  _69
REMARK   28  A    between atoms: _69  and  _70
REMARK   29  A    between atoms: _69  and  _72
REMARK   30  A    between atoms: _75  and  _77
REMARK   31  A    between atoms: _77  and  _78
REMARK   32  A    between atoms: _77  and  _80
REMARK   33  A    between atoms: _80  and  _81
REMARK   34  A    between atoms: _87  and  _89
REMARK   35  A    between atoms: _89  and  _90
REMARK   36  A    between atoms: _89  and  _92
REMARK   37  A    between atoms: _92  and  _93
REMARK   38  A    between atoms: _96  and  _98
REMARK   39  A    between atoms: _98  and  _99
REMARK   40  A    between atoms: _98  and  _101
REMARK   41  A    between atoms: _101  and  _102
REMARK   42  A    between atoms: _105  and  _107
REMARK   43  A    between atoms: _107  and  _108
REMARK   44  A    between atoms: _110  and  _112
REMARK   45  A    between atoms: _112  and  _113
REMARK   46  A    between atoms: _112  and  _115
REMARK   47  A    between atoms: _115  and  _116
REMARK   48  A    between atoms: _118  and  _120
REMARK   49  A    between atoms: _120  and  _121
REMARK   50  A    between atoms: _120  and  _123
REMARK   51  A    between atoms: _123  and  _124
REMARK   52  A    between atoms: _126  and  _128
REMARK   53  A    between atoms: _128  and  _129
REMARK   54  A    between atoms: _128  and  _131
REMARK   55  A    between atoms: _131  and  _132
REMARK   56  A    between atoms: _142  and  _144
REMARK   57  A    between atoms: _144  and  _145
REMARK   58  A    between atoms: _144  and  _147
REMARK   59  A    between atoms: _147  and  _148
REMARK   60  A    between atoms: _153  and  _155
REMARK   61  A    between atoms: _155  and  _156
REMARK   62  A    between atoms: _155  and  _158
REMARK   63  A    between atoms: _158  and  _159
REMARK   64  A    between atoms: _162  and  _164
REMARK   65  A    between atoms: _164  and  _165
REMARK   66  A    between atoms: _164  and  _167
REMARK   67  A    between atoms: _167  and  _168
REMARK   68  A    between atoms: _168  and  _169
REMARK   69  A    between atoms: _169  and  _170
REMARK   70  A    between atoms: _179  and  _181
REMARK   71  A    between atoms: _181  and  _182
REMARK   72  A    between atoms: _181  and  _184
REMARK   73  A    between atoms: _184  and  _185
REMARK   74  A    between atoms: _190  and  _191
REMARK   75  A    between atoms: _193  and  _195
REMARK   76  A    between atoms: _195  and  _196
REMARK   77  A    between atoms: _195  and  _198
REMARK   78  A    between atoms: _198  and  _199
REMARK   79  A    between atoms: _201  and  _203
REMARK   80  A    between atoms: _203  and  _204
REMARK   81  A    between atoms: _203  and  _206
REMARK   82  A    between atoms: _206  and  _207
REMARK   83  A    between atoms: _210  and  _212
REMARK   84  A    between atoms: _212  and  _213
REMARK   85  A    between atoms: _215  and  _217
REMARK   86  A    between atoms: _217  and  _218
REMARK   87  A    between atoms: _217  and  _220
REMARK   88  A    between atoms: _220  and  _221
REMARK   89  A    between atoms: _224  and  _226
REMARK   90  A    between atoms: _226  and  _227
REMARK   91  A    between atoms: _226  and  _229
REMARK   92  A    between atoms: _232  and  _234
REMARK   93  A    between atoms: _234  and  _235
REMARK   94  A    between atoms: _238  and  _240
REMARK   95  A    between atoms: _240  and  _241
REMARK   96  A    between atoms: _240  and  _243
REMARK   97  A    between atoms: _243  and  _244
REMARK   98  A    between atoms: _248  and  _249
REMARK   99  A    between atoms: _254  and  _256
REMARK  100  A    between atoms: _256  and  _257
REMARK  101  A    between atoms: _256  and  _259
REMARK  102  A    between atoms: _259  and  _260
REMARK  103  A    between atoms: _266  and  _268
REMARK  104  A    between atoms: _268  and  _269
REMARK  105  A    between atoms: _268  and  _271
REMARK  106  A    between atoms: _271  and  _272
REMARK  107  A    between atoms: _272  and  _273
REMARK  108  A    between atoms: _275  and  _277
REMARK  109  A    between atoms: _277  and  _278
REMARK  110  A    between atoms: _277  and  _280
REMARK  111  A    between atoms: _280  and  _281
REMARK  112  A    between atoms: _284  and  _286
REMARK  113  A    between atoms: _286  and  _287
REMARK  114  A    between atoms: _290  and  _292
REMARK  115  A    between atoms: _292  and  _293
REMARK  116  A    between atoms: _292  and  _295
REMARK  117  A    between atoms: _295  and  _296
REMARK  118  A    between atoms: _296  and  _297
REMARK  119  A    between atoms: _300  and  _302
REMARK  120  A    between atoms: _302  and  _303
REMARK  121  A    between atoms: _302  and  _305
REMARK  122  A    between atoms: _305  and  _306
REMARK  123  A    between atoms: _312  and  _314
REMARK  124  A    between atoms: _314  and  _315
REMARK  125  A    between atoms: _317  and  _319
REMARK  126  A    between atoms: _319  and  _320
REMARK  127  A    between atoms: _319  and  _322
REMARK  128  A    between atoms: _325  and  _327
REMARK  129  A    between atoms: _327  and  _328
REMARK  130  A    between atoms: _327  and  _330
REMARK  131  A    between atoms: _333  and  _335
REMARK  132  A    between atoms: _335  and  _336
REMARK  133  A    between atoms: _335  and  _338
REMARK  134  A    between atoms: _338  and  _339
REMARK  135  A    between atoms: _339  and  _340
REMARK  136  A    between atoms: _342  and  _344
REMARK  137  A    between atoms: _344  and  _345
REMARK  138  A    between atoms: _344  and  _347
REMARK  139  A    between atoms: _347  and  _348
REMARK  140  A    between atoms: _348  and  _349
REMARK  141  A    between atoms: _354  and  _356
REMARK  142  A    between atoms: _356  and  _357
REMARK  143  A    between atoms: _356  and  _359
REMARK  144  A    between atoms: _362  and  _364
REMARK  145  A    between atoms: _364  and  _365
REMARK  146  A    between atoms: _364  and  _367
REMARK  147  A    between atoms: _367  and  _368
REMARK  148  A    between atoms: _378  and  _380
REMARK  149  A    between atoms: _380  and  _381
REMARK  150  A    between atoms: _380  and  _383
REMARK  151  A    between atoms: _383  and  _384
REMARK  152  A    between atoms: _387  and  _389
REMARK  153  A    between atoms: _389  and  _390
REMARK  154  A    between atoms: _389  and  _392
REMARK  155  A    between atoms: _395  and  _397
REMARK  156  A    between atoms: _397  and  _398
REMARK  157  A    between atoms: _397  and  _400
REMARK  158  A    between atoms: _400  and  _401
REMARK  159  A    between atoms: _404  and  _406
REMARK  160  A    between atoms: _406  and  _407
REMARK  161  A    between atoms: _406  and  _409
REMARK  162  A    between atoms: _409  and  _410
REMARK  163  A    between atoms: _413  and  _415
REMARK  164  A    between atoms: _415  and  _416
REMARK  165  A    between atoms: _418  and  _420
REMARK  166  A    between atoms: _420  and  _421
REMARK  167  A    between atoms: _424  and  _426
REMARK  168  A    between atoms: _426  and  _427
REMARK  169  A    between atoms: _426  and  _429
REMARK  170  A    between atoms: _429  and  _430
REMARK  171  A    between atoms: _432  and  _434
REMARK  172  A    between atoms: _434  and  _435
REMARK  173  A    between atoms: _434  and  _437
REMARK  174  A    between atoms: _437  and  _438
REMARK  175  A    between atoms: _443  and  _444
REMARK  176  A    between atoms: _446  and  _448
REMARK  177  A    between atoms: _448  and  _449
REMARK  178  A    between atoms: _448  and  _451
REMARK  179  A    between atoms: _451  and  _452
REMARK  180  A    between atoms: _455  and  _457
REMARK  181  A    between atoms: _457  and  _458
REMARK  182  A    between atoms: _457  and  _460
REMARK  183  A    between atoms: _460  and  _461
REMARK  184  A    between atoms: _463  and  _465
REMARK  185  A    between atoms: _465  and  _466
REMARK  186  A    between atoms: _468  and  _470
REMARK  187  A    between atoms: _470  and  _471
REMARK  188  A    between atoms: _470  and  _473
REMARK  189  A    between atoms: _473  and  _474
REMARK  190  A    between atoms: _480  and  _482
REMARK  191  A    between atoms: _482  and  _483
REMARK  192  A    between atoms: _482  and  _485
REMARK  193  A    between atoms: _485  and  _486
REMARK  194  A    between atoms: _489  and  _491
REMARK  195  A    between atoms: _491  and  _492
REMARK  196  A    between atoms: _491  and  _494
REMARK  197  A    between atoms: _494  and  _495
REMARK  198  A    between atoms: _501  and  _503
REMARK  199  A    between atoms: _503  and  _504
REMARK  200  A    between atoms: _503  and  _506
REMARK  201  A    between atoms: _506  and  _507
REMARK  202  A    between atoms: _510  and  _512
REMARK  203  A    between atoms: _512  and  _513
REMARK  204  A    between atoms: _512  and  _515
REMARK  205  A    between atoms: _515  and  _516
REMARK  206  A    between atoms: _519  and  _521
REMARK  207  A    between atoms: _521  and  _522
REMARK  208  A    between atoms: _525  and  _527
REMARK  209  A    between atoms: _527  and  _528
REMARK  210  A    between atoms: _527  and  _530
REMARK  211  A    between atoms: _530  and  _531
REMARK  212  A    between atoms: _534  and  _536
REMARK  213  A    between atoms: _536  and  _537
REMARK  214  A    between atoms: _536  and  _539
REMARK  215  A    between atoms: _539  and  _540
REMARK  216  A    between atoms: _545  and  _547
REMARK  217  A    between atoms: _547  and  _548
REMARK  218  A    between atoms: _551  and  _553
REMARK  219  A    between atoms: _553  and  _554
REMARK  220  A    between atoms: _553  and  _556
REMARK  221  A    between atoms: _556  and  _557
REMARK  222  A    between atoms: _557  and  _558
REMARK  223  A    between atoms: _560  and  _562
REMARK  224  A    between atoms: _562  and  _563
REMARK  225  A    between atoms: _562  and  _565
REMARK  226  A    between atoms: _565  and  _566
REMARK  227  A    between atoms: _569  and  _571
REMARK  228  A    between atoms: _571  and  _572
REMARK  229  A    between atoms: _571  and  _574
REMARK  230  A    between atoms: _574  and  _575
REMARK  231  A    between atoms: _579  and  _580
REMARK  232  A    between atoms: _585  and  _587
REMARK  233  A    between atoms: _587  and  _588
REMARK  234  A    between atoms: _587  and  _590
REMARK  235  A    between atoms: _590  and  _591
REMARK  236  A    between atoms: _594  and  _596
REMARK  237  A    between atoms: _596  and  _597
REMARK  238  A    between atoms: _599  and  _601
REMARK  239  A    between atoms: _601  and  _602
REMARK  240  A    between atoms: _601  and  _604
REMARK  241  A    between atoms: _604  and  _605
REMARK  242  A    between atoms: _608  and  _610
REMARK  243  A    between atoms: _610  and  _611
REMARK  244  A    between atoms: _610  and  _613
REMARK  245  A    between atoms: _613  and  _614
REMARK  246  A    between atoms: _624  and  _626
REMARK  247  A    between atoms: _626  and  _627
REMARK  248  A    between atoms: _630  and  _632
REMARK  249  A    between atoms: _632  and  _633
REMARK  250  A    between atoms: _632  and  _635
REMARK  251  A    between atoms: _635  and  _636
REMARK  252  A    between atoms: _639  and  _641
REMARK  253  A    between atoms: _641  and  _642
REMARK  254  A    between atoms: _644  and  _646
REMARK  255  A    between atoms: _646  and  _647
REMARK                            x       y       z     vdW  Elec       q    Type
REMARK                         _______ _______ _______ _____ _____    ______ ____
ROOT
ATOM      1  O   HOH     1     -12.476   2.113   1.851  0.00  0.00    +0.000 OA
ENDROOT
TORSDOF 0
REMARK  Name = ../refined-set-2016/3d91/3d91_pocket.pdb
REMARK  255 active torsions:
REMARK  status: ('A' for Active; 'I' for Inactive)
REMARK    1  A    between atoms: _1  and  _3
REMARK    2  A    between atoms: _3  and  _4
REMARK    3  A    between atoms: _3  and  _6
REMARK    4  A    between atoms: _6  and  _7
REMARK    5  A    between atoms: _12  and  _13
REMARK    6  A    between atoms: _15  and  _17
REMARK    7  A    between atoms: _17  and  _18
REMARK    8  A    between atoms: _17  and  _20
REMARK    9  A    between atoms: _20  and  _21
REMARK   10  A    between atoms: _24  and  _26
REMARK   11  A    between atoms: _26  and  _27
REMARK   12  A    between atoms: _26  and  _29
REMARK   13  A    between atoms: _29  and  _30
REMARK   14  A    between atoms: _33  and  _35
REMARK   15  A    between atoms: _35  and  _36
REMARK   16  A    between atoms: _35  and  _38
REMARK   17  A    between atoms: _38  and  _39
REMARK   18  A    between atoms: _39  and  _40
REMARK   19  A    between atoms: _45  and  _47
REMARK   20  A    between atoms: _47  and  _48
REMARK   21  A    between atoms: _47  and  _50
REMARK   22  A    between atoms: _50  and  _51
REMARK   23  A    between atoms: _56  and  _57
REMARK   24  A    between atoms: _59  and  _61
REMARK   25  A    between atoms: _61  and  _62
REMARK   26  A    between atoms: _61  and  _64
REMARK   27  A    between atoms: _67  and  _69
REMARK   28  A    between atoms: _69  and  _70
REMARK   29  A    between atoms: _69  and  _72
REMARK   30  A    between atoms: _75  and  _77
REMARK   31  A    between atoms: _77  and  _78
REMARK   32  A    between atoms: _77  and  _80
REMARK   33  A    between atoms: _80  and  _81
REMARK   34  A    between atoms: _87  and  _89
REMARK   35  A    between atoms: _89  and  _90
REMARK   36  A    between atoms: _89  and  _92
REMARK   37  A    between atoms: _92  and  _93
REMARK   38  A    between atoms: _96  and  _98
REMARK   39  A    between atoms: _98  and  _99
REMARK   40  A    between atoms: _98  and  _101
REMARK   41  A    between atoms: _101  and  _102
REMARK   42  A    between atoms: _105  and  _107
REMARK   43  A    between atoms: _107  and  _108
REMARK   44  A    between atoms: _110  and  _112
REMARK   45  A    between atoms: _112  and  _113
REMARK   46  A    between atoms: _112  and  _115
REMARK   47  A    between atoms: _115  and  _116
REMARK   48  A    between atoms: _118  and  _120
REMARK   49  A    between atoms: _120  and  _121
REMARK   50  A    between atoms: _120  and  _123
REMARK   51  A    between atoms: _123  and  _124
REMARK   52  A    between atoms: _126  and  _128
REMARK   53  A    between atoms: _128  and  _129
REMARK   54  A    between atoms: _128  and  _131
REMARK   55  A    between atoms: _131  and  _132
REMARK   56  A    between atoms: _142  and  _144
REMARK   57  A    between atoms: _144  and  _145
REMARK   58  A    between atoms: _144  and  _147
REMARK   59  A    between atoms: _147  and  _148
REMARK   60  A    between atoms: _153  and  _155
REMARK   61  A    between atoms: _155  and  _156
REMARK   62  A    between atoms: _155  and  _158
REMARK   63  A    between atoms: _158  and  _159
REMARK   64  A    between atoms: _162  and  _164
REMARK   65  A    between atoms: _164  and  _165
REMARK   66  A    between atoms: _164  and  _167
REMARK   67  A    between atoms: _167  and  _168
REMARK   68  A    between atoms: _168  and  _169
REMARK   69  A    between atoms: _169  and  _170
REMARK   70  A    between atoms: _179  and  _181
REMARK   71  A    between atoms: _181  and  _182
REMARK   72  A    between atoms: _181  and  _184
REMARK   73  A    between atoms: _184  and  _185
REMARK   74  A    between atoms: _190  and  _191
REMARK   75  A    between atoms: _193  and  _195
REMARK   76  A    between atoms: _195  and  _196
REMARK   77  A    between atoms: _195  and  _198
REMARK   78  A    between atoms: _198  and  _199
REMARK   79  A    between atoms: _201  and  _203
REMARK   80  A    between atoms: _203  and  _204
REMARK   81  A    between atoms: _203  and  _206
REMARK   82  A    between atoms: _206  and  _207
REMARK   83  A    between atoms: _210  and  _212
REMARK   84  A    between atoms: _212  and  _213
REMARK   85  A    between atoms: _215  and  _217
REMARK   86  A    between atoms: _217  and  _218
REMARK   87  A    between atoms: _217  and  _220
REMARK   88  A    between atoms: _220  and  _221
REMARK   89  A    between atoms: _224  and  _226
REMARK   90  A    between atoms: _226  and  _227
REMARK   91  A    between atoms: _226  and  _229
REMARK   92  A    between atoms: _232  and  _234
REMARK   93  A    between atoms: _234  and  _235
REMARK   94  A    between atoms: _238  and  _240
REMARK   95  A    between atoms: _240  and  _241
REMARK   96  A    between atoms: _240  and  _243
REMARK   97  A    between atoms: _243  and  _244
REMARK   98  A    between atoms: _248  and  _249
REMARK   99  A    between atoms: _254  and  _256
REMARK  100  A    between atoms: _256  and  _257
REMARK  101  A    between atoms: _256  and  _259
REMARK  102  A    between atoms: _259  and  _260
REMARK  103  A    between atoms: _266  and  _268
REMARK  104  A    between atoms: _268  and  _269
REMARK  105  A    between atoms: _268  and  _271
REMARK  106  A    between atoms: _271  and  _272
REMARK  107  A    between atoms: _272  and  _273
REMARK  108  A    between atoms: _275  and  _277
REMARK  109  A    between atoms: _277  and  _278
REMARK  110  A    between atoms: _277  and  _280
REMARK  111  A    between atoms: _280  and  _281
REMARK  112  A    between atoms: _284  and  _286
REMARK  113  A    between atoms: _286  and  _287
REMARK  114  A    between atoms: _290  and  _292
REMARK  115  A    between atoms: _292  and  _293
REMARK  116  A    between atoms: _292  and  _295
REMARK  117  A    between atoms: _295  and  _296
REMARK  118  A    between atoms: _296  and  _297
REMARK  119  A    between atoms: _300  and  _302
REMARK  120  A    between atoms: _302  and  _303
REMARK  121  A    between atoms: _302  and  _305
REMARK  122  A    between atoms: _305  and  _306
REMARK  123  A    between atoms: _312  and  _314
REMARK  124  A    between atoms: _314  and  _315
REMARK  125  A    between atoms: _317  and  _319
REMARK  126  A    between atoms: _319  and  _320
REMARK  127  A    between atoms: _319  and  _322
REMARK  128  A    between atoms: _325  and  _327
REMARK  129  A    between atoms: _327  and  _328
REMARK  130  A    between atoms: _327  and  _330
REMARK  131  A    between atoms: _333  and  _335
REMARK  132  A    between atoms: _335  and  _336
REMARK  133  A    between atoms: _335  and  _338
REMARK  134  A    between atoms: _338  and  _339
REMARK  135  A    between atoms: _339  and  _340
REMARK  136  A    between atoms: _342  and  _344
REMARK  137  A    between atoms: _344  and  _345
REMARK  138  A    between atoms: _344  and  _347
REMARK  139  A    between atoms: _347  and  _348
REMARK  140  A    between atoms: _348  and  _349
REMARK  141  A    between atoms: _354  and  _356
REMARK  142  A    between atoms: _356  and  _357
REMARK  143  A    between atoms: _356  and  _359
REMARK  144  A    between atoms: _362  and  _364
REMARK  145  A    between atoms: _364  and  _365
REMARK  146  A    between atoms: _364  and  _367
REMARK  147  A    between atoms: _367  and  _368
REMARK  148  A    between atoms: _378  and  _380
REMARK  149  A    between atoms: _380  and  _381
REMARK  150  A    between atoms: _380  and  _383
REMARK  151  A    between atoms: _383  and  _384
REMARK  152  A    between atoms: _387  and  _389
REMARK  153  A    between atoms: _389  and  _390
REMARK  154  A    between atoms: _389  and  _392
REMARK  155  A    between atoms: _395  and  _397
REMARK  156  A    between atoms: _397  and  _398
REMARK  157  A    between atoms: _397  and  _400
REMARK  158  A    between atoms: _400  and  _401
REMARK  159  A    between atoms: _404  and  _406
REMARK  160  A    between atoms: _406  and  _407
REMARK  161  A    between atoms: _406  and  _409
REMARK  162  A    between atoms: _409  and  _410
REMARK  163  A    between atoms: _413  and  _415
REMARK  164  A    between atoms: _415  and  _416
REMARK  165  A    between atoms: _418  and  _420
REMARK  166  A    between atoms: _420  and  _421
REMARK  167  A    between atoms: _424  and  _426
REMARK  168  A    between atoms: _426  and  _427
REMARK  169  A    between atoms: _426  and  _429
REMARK  170  A    between atoms: _429  and  _430
REMARK  171  A    between atoms: _432  and  _434
REMARK  172  A    between atoms: _434  and  _435
REMARK  173  A    between atoms: _434  and  _437
REMARK  174  A    between atoms: _437  and  _438
REMARK  175  A    between atoms: _443  and  _444
REMARK  176  A    between atoms: _446  and  _448
REMARK  177  A    between atoms: _448  and  _449
REMARK  178  A    between atoms: _448  and  _451
REMARK  179  A    between atoms: _451  and  _452
REMARK  180  A    between atoms: _455  and  _457
REMARK  181  A    between atoms: _457  and  _458
REMARK  182  A    between atoms: _457  and  _460
REMARK  183  A    between atoms: _460  and  _461
REMARK  184  A    between atoms: _463  and  _465
REMARK  185  A    between atoms: _465  and  _466
REMARK  186  A    between atoms: _468  and  _470
REMARK  187  A    between atoms: _470  and  _471
REMARK  188  A    between atoms: _470  and  _473
REMARK  189  A    between atoms: _473  and  _474
REMARK  190  A    between atoms: _480  and  _482
REMARK  191  A    between atoms: _482  and  _483
REMARK  192  A    between atoms: _482  and  _485
REMARK  193  A    between atoms: _485  and  _486
REMARK  194  A    between atoms: _489  and  _491
REMARK  195  A    between atoms: _491  and  _492
REMARK  196  A    between atoms: _491  and  _494
REMARK  197  A    between atoms: _494  and  _495
REMARK  198  A    between atoms: _501  and  _503
REMARK  199  A    between atoms: _503  and  _504
REMARK  200  A    between atoms: _503  and  _506
REMARK  201  A    between atoms: _506  and  _507
REMARK  202  A    between atoms: _510  and  _512
REMARK  203  A    between atoms: _512  and  _513
REMARK  204  A    between atoms: _512  and  _515
REMARK  205  A    between atoms: _515  and  _516
REMARK  206  A    between atoms: _519  and  _521
REMARK  207  A    between atoms: _521  and  _522
REMARK  208  A    between atoms: _525  and  _527
REMARK  209  A    between atoms: _527  and  _528
REMARK  210  A    between atoms: _527  and  _530
REMARK  211  A    between atoms: _530  and  _531
REMARK  212  A    between atoms: _534  and  _536
REMARK  213  A    between atoms: _536  and  _537
REMARK  214  A    between atoms: _536  and  _539
REMARK  215  A    between atoms: _539  and  _540
REMARK  216  A    between atoms: _545  and  _547
REMARK  217  A    between atoms: _547  and  _548
REMARK  218  A    between atoms: _551  and  _553
REMARK  219  A    between atoms: _553  and  _554
REMARK  220  A    between atoms: _553  and  _556
REMARK  221  A    between atoms: _556  and  _557
REMARK  222  A    between atoms: _557  and  _558
REMARK  223  A    between atoms: _560  and  _562
REMARK  224  A    between atoms: _562  and  _563
REMARK  225  A    between atoms: _562  and  _565
REMARK  226  A    between atoms: _565  and  _566
REMARK  227  A    between atoms: _569  and  _571
REMARK  228  A    between atoms: _571  and  _572
REMARK  229  A    between atoms: _571  and  _574
REMARK  230  A    between atoms: _574  and  _575
REMARK  231  A    between atoms: _579  and  _580
REMARK  232  A    between atoms: _585  and  _587
REMARK  233  A    between atoms: _587  and  _588
REMARK  234  A    between atoms: _587  and  _590
REMARK  235  A    between atoms: _590  and  _591
REMARK  236  A    between atoms: _594  and  _596
REMARK  237  A    between atoms: _596  and  _597
REMARK  238  A    between atoms: _599  and  _601
REMARK  239  A    between atoms: _601  and  _602
REMARK  240  A    between atoms: _601  and  _604
REMARK  241  A    between atoms: _604  and  _605
REMARK  242  A    between atoms: _608  and  _610
REMARK  243  A    between atoms: _610  and  _611
REMARK  244  A    between atoms: _610  and  _613
REMARK  245  A    between atoms: _613  and  _614
REMARK  246  A    between atoms: _624  and  _626
REMARK  247  A    between atoms: _626  and  _627
REMARK  248  A    between atoms: _630  and  _632
REMARK  249  A    between atoms: _632  and  _633
REMARK  250  A    between atoms: _632  and  _635
REMARK  251  A    between atoms: _635  and  _636
REMARK  252  A    between atoms: _639  and  _641
REMARK  253  A    between atoms: _641  and  _642
REMARK  254  A    between atoms: _644  and  _646
REMARK  255  A    between atoms: _646  and  _647
REMARK                            x       y       z     vdW  Elec       q    Type
REMARK                         _______ _______ _______ _____ _____    ______ ____
ROOT
ATOM      1  O   HOH     1       1.747  -1.219 -16.465  0.00  0.00    +0.000 OA
ENDROOT
TORSDOF 0
REMARK  Name = ../refined-set-2016/3d91/3d91_pocket.pdb
REMARK  255 active torsions:
REMARK  status: ('A' for Active; 'I' for Inactive)
REMARK    1  A    between atoms: _1  and  _3
REMARK    2  A    between atoms: _3  and  _4
REMARK    3  A    between atoms: _3  and  _6
REMARK    4  A    between atoms: _6  and  _7
REMARK    5  A    between atoms: _12  and  _13
REMARK    6  A    between atoms: _15  and  _17
REMARK    7  A    between atoms: _17  and  _18
REMARK    8  A    between atoms: _17  and  _20
REMARK    9  A    between atoms: _20  and  _21
REMARK   10  A    between atoms: _24  and  _26
REMARK   11  A    between atoms: _26  and  _27
REMARK   12  A    between atoms: _26  and  _29
REMARK   13  A    between atoms: _29  and  _30
REMARK   14  A    between atoms: _33  and  _35
REMARK   15  A    between atoms: _35  and  _36
REMARK   16  A    between atoms: _35  and  _38
REMARK   17  A    between atoms: _38  and  _39
REMARK   18  A    between atoms: _39  and  _40
REMARK   19  A    between atoms: _45  and  _47
REMARK   20  A    between atoms: _47  and  _48
REMARK   21  A    between atoms: _47  and  _50
REMARK   22  A    between atoms: _50  and  _51
REMARK   23  A    between atoms: _56  and  _57
REMARK   24  A    between atoms: _59  and  _61
REMARK   25  A    between atoms: _61  and  _62
REMARK   26  A    between atoms: _61  and  _64
REMARK   27  A    between atoms: _67  and  _69
REMARK   28  A    between atoms: _69  and  _70
REMARK   29  A    between atoms: _69  and  _72
REMARK   30  A    between atoms: _75  and  _77
REMARK   31  A    between atoms: _77  and  _78
REMARK   32  A    between atoms: _77  and  _80
REMARK   33  A    between atoms: _80  and  _81
REMARK   34  A    between atoms: _87  and  _89
REMARK   35  A    between atoms: _89  and  _90
REMARK   36  A    between atoms: _89  and  _92
REMARK   37  A    between atoms: _92  and  _93
REMARK   38  A    between atoms: _96  and  _98
REMARK   39  A    between atoms: _98  and  _99
REMARK   40  A    between atoms: _98  and  _101
REMARK   41  A    between atoms: _101  and  _102
REMARK   42  A    between atoms: _105  and  _107
REMARK   43  A    between atoms: _107  and  _108
REMARK   44  A    between atoms: _110  and  _112
REMARK   45  A    between atoms: _112  and  _113
REMARK   46  A    between atoms: _112  and  _115
REMARK   47  A    between atoms: _115  and  _116
REMARK   48  A    between atoms: _118  and  _120
REMARK   49  A    between atoms: _120  and  _121
REMARK   50  A    between atoms: _120  and  _123
REMARK   51  A    between atoms: _123  and  _124
REMARK   52  A    between atoms: _126  and  _128
REMARK   53  A    between atoms: _128  and  _129
REMARK   54  A    between atoms: _128  and  _131
REMARK   55  A    between atoms: _131  and  _132
REMARK   56  A    between atoms: _142  and  _144
REMARK   57  A    between atoms: _144  and  _145
REMARK   58  A    between atoms: _144  and  _147
REMARK   59  A    between atoms: _147  and  _148
REMARK   60  A    between atoms: _153  and  _155
REMARK   61  A    between atoms: _155  and  _156
REMARK   62  A    between atoms: _155  and  _158
REMARK   63  A    between atoms: _158  and  _159
REMARK   64  A    between atoms: _162  and  _164
REMARK   65  A    between atoms: _164  and  _165
REMARK   66  A    between atoms: _164  and  _167
REMARK   67  A    between atoms: _167  and  _168
REMARK   68  A    between atoms: _168  and  _169
REMARK   69  A    between atoms: _169  and  _170
REMARK   70  A    between atoms: _179  and  _181
REMARK   71  A    between atoms: _181  and  _182
REMARK   72  A    between atoms: _181  and  _184
REMARK   73  A    between atoms: _184  and  _185
REMARK   74  A    between atoms: _190  and  _191
REMARK   75  A    between atoms: _193  and  _195
REMARK   76  A    between atoms: _195  and  _196
REMARK   77  A    between atoms: _195  and  _198
REMARK   78  A    between atoms: _198  and  _199
REMARK   79  A    between atoms: _201  and  _203
REMARK   80  A    between atoms: _203  and  _204
REMARK   81  A    between atoms: _203  and  _206
REMARK   82  A    between atoms: _206  and  _207
REMARK   83  A    between atoms: _210  and  _212
REMARK   84  A    between atoms: _212  and  _213
REMARK   85  A    between atoms: _215  and  _217
REMARK   86  A    between atoms: _217  and  _218
REMARK   87  A    between atoms: _217  and  _220
REMARK   88  A    between atoms: _220  and  _221
REMARK   89  A    between atoms: _224  and  _226
REMARK   90  A    between atoms: _226  and  _227
REMARK   91  A    between atoms: _226  and  _229
REMARK   92  A    between atoms: _232  and  _234
REMARK   93  A    between atoms: _234  and  _235
REMARK   94  A    between atoms: _238  and  _240
REMARK   95  A    between atoms: _240  and  _241
REMARK   96  A    between atoms: _240  and  _243
REMARK   97  A    between atoms: _243  and  _244
REMARK   98  A    between atoms: _248  and  _249
REMARK   99  A    between atoms: _254  and  _256
REMARK  100  A    between atoms: _256  and  _257
REMARK  101  A    between atoms: _256  and  _259
REMARK  102  A    between atoms: _259  and  _260
REMARK  103  A    between atoms: _266  and  _268
REMARK  104  A    between atoms: _268  and  _269
REMARK  105  A    between atoms: _268  and  _271
REMARK  106  A    between atoms: _271  and  _272
REMARK  107  A    between atoms: _272  and  _273
REMARK  108  A    between atoms: _275  and  _277
REMARK  109  A    between atoms: _277  and  _278
REMARK  110  A    between atoms: _277  and  _280
REMARK  111  A    between atoms: _280  and  _281
REMARK  112  A    between atoms: _284  and  _286
REMARK  113  A    between atoms: _286  and  _287
REMARK  114  A    between atoms: _290  and  _292
REMARK  115  A    between atoms: _292  and  _293
REMARK  116  A    between atoms: _292  and  _295
REMARK  117  A    between atoms: _295  and  _296
REMARK  118  A    between atoms: _296  and  _297
REMARK  119  A    between atoms: _300  and  _302
REMARK  120  A    between atoms: _302  and  _303
REMARK  121  A    between atoms: _302  and  _305
REMARK  122  A    between atoms: _305  and  _306
REMARK  123  A    between atoms: _312  and  _314
REMARK  124  A    between atoms: _314  and  _315
REMARK  125  A    between atoms: _317  and  _319
REMARK  126  A    between atoms: _319  and  _320
REMARK  127  A    between atoms: _319  and  _322
REMARK  128  A    between atoms: _325  and  _327
REMARK  129  A    between atoms: _327  and  _328
REMARK  130  A    between atoms: _327  and  _330
REMARK  131  A    between atoms: _333  and  _335
REMARK  132  A    between atoms: _335  and  _336
REMARK  133  A    between atoms: _335  and  _338
REMARK  134  A    between atoms: _338  and  _339
REMARK  135  A    between atoms: _339  and  _340
REMARK  136  A    between atoms: _342  and  _344
REMARK  137  A    between atoms: _344  and  _345
REMARK  138  A    between atoms: _344  and  _347
REMARK  139  A    between atoms: _347  and  _348
REMARK  140  A    between atoms: _348  and  _349
REMARK  141  A    between atoms: _354  and  _356
REMARK  142  A    between atoms: _356  and  _357
REMARK  143  A    between atoms: _356  and  _359
REMARK  144  A    between atoms: _362  and  _364
REMARK  145  A    between atoms: _364  and  _365
REMARK  146  A    between atoms: _364  and  _367
REMARK  147  A    between atoms: _367  and  _368
REMARK  148  A    between atoms: _378  and  _380
REMARK  149  A    between atoms: _380  and  _381
REMARK  150  A    between atoms: _380  and  _383
REMARK  151  A    between atoms: _383  and  _384
REMARK  152  A    between atoms: _387  and  _389
REMARK  153  A    between atoms: _389  and  _390
REMARK  154  A    between atoms: _389  and  _392
REMARK  155  A    between atoms: _395  and  _397
REMARK  156  A    between atoms: _397  and  _398
REMARK  157  A    between atoms: _397  and  _400
REMARK  158  A    between atoms: _400  and  _401
REMARK  159  A    between atoms: _404  and  _406
REMARK  160  A    between atoms: _406  and  _407
REMARK  161  A    between atoms: _406  and  _409
REMARK  162  A    between atoms: _409  and  _410
REMARK  163  A    between atoms: _413  and  _415
REMARK  164  A    between atoms: _415  and  _416
REMARK  165  A    between atoms: _418  and  _420
REMARK  166  A    between atoms: _420  and  _421
REMARK  167  A    between atoms: _424  and  _426
REMARK  168  A    between atoms: _426  and  _427
REMARK  169  A    between atoms: _426  and  _429
REMARK  170  A    between atoms: _429  and  _430
REMARK  171  A    between atoms: _432  and  _434
REMARK  172  A    between atoms: _434  and  _435
REMARK  173  A    between atoms: _434  and  _437
REMARK  174  A    between atoms: _437  and  _438
REMARK  175  A    between atoms: _443  and  _444
REMARK  176  A    between atoms: _446  and  _448
REMARK  177  A    between atoms: _448  and  _449
REMARK  178  A    between atoms: _448  and  _451
REMARK  179  A    between atoms: _451  and  _452
REMARK  180  A    between atoms: _455  and  _457
REMARK  181  A    between atoms: _457  and  _458
REMARK  182  A    between atoms: _457  and  _460
REMARK  183  A    between atoms: _460  and  _461
REMARK  184  A    between atoms: _463  and  _465
REMARK  185  A    between atoms: _465  and  _466
REMARK  186  A    between atoms: _468  and  _470
REMARK  187  A    between atoms: _470  and  _471
REMARK  188  A    between atoms: _470  and  _473
REMARK  189  A    between atoms: _473  and  _474
REMARK  190  A    between atoms: _480  and  _482
REMARK  191  A    between atoms: _482  and  _483
REMARK  192  A    between atoms: _482  and  _485
REMARK  193  A    between atoms: _485  and  _486
REMARK  194  A    between atoms: _489  and  _491
REMARK  195  A    between atoms: _491  and  _492
REMARK  196  A    between atoms: _491  and  _494
REMARK  197  A    between atoms: _494  and  _495
REMARK  198  A    between atoms: _501  and  _503
REMARK  199  A    between atoms: _503  and  _504
REMARK  200  A    between atoms: _503  and  _506
REMARK  201  A    between atoms: _506  and  _507
REMARK  202  A    between atoms: _510  and  _512
REMARK  203  A    between atoms: _512  and  _513
REMARK  204  A    between atoms: _512  and  _515
REMARK  205  A    between atoms: _515  and  _516
REMARK  206  A    between atoms: _519  and  _521
REMARK  207  A    between atoms: _521  and  _522
REMARK  208  A    between atoms: _525  and  _527
REMARK  209  A    between atoms: _527  and  _528
REMARK  210  A    between atoms: _527  and  _530
REMARK  211  A    between atoms: _530  and  _531
REMARK  212  A    between atoms: _534  and  _536
REMARK  213  A    between atoms: _536  and  _537
REMARK  214  A    between atoms: _536  and  _539
REMARK  215  A    between atoms: _539  and  _540
REMARK  216  A    between atoms: _545  and  _547
REMARK  217  A    between atoms: _547  and  _548
REMARK  218  A    between atoms: _551  and  _553
REMARK  219  A    between atoms: _553  and  _554
REMARK  220  A    between atoms: _553  and  _556
REMARK  221  A    between atoms: _556  and  _557
REMARK  222  A    between atoms: _557  and  _558
REMARK  223  A    between atoms: _560  and  _562
REMARK  224  A    between atoms: _562  and  _563
REMARK  225  A    between atoms: _562  and  _565
REMARK  226  A    between atoms: _565  and  _566
REMARK  227  A    between atoms: _569  and  _571
REMARK  228  A    between atoms: _571  and  _572
REMARK  229  A    between atoms: _571  and  _574
REMARK  230  A    between atoms: _574  and  _575
REMARK  231  A    between atoms: _579  and  _580
REMARK  232  A    between atoms: _585  and  _587
REMARK  233  A    between atoms: _587  and  _588
REMARK  234  A    between atoms: _587  and  _590
REMARK  235  A    between atoms: _590  and  _591
REMARK  236  A    between atoms: _594  and  _596
REMARK  237  A    between atoms: _596  and  _597
REMARK  238  A    between atoms: _599  and  _601
REMARK  239  A    between atoms: _601  and  _602
REMARK  240  A    between atoms: _601  and  _604
REMARK  241  A    between atoms: _604  and  _605
REMARK  242  A    between atoms: _608  and  _610
REMARK  243  A    between atoms: _610  and  _611
REMARK  244  A    between atoms: _610  and  _613
REMARK  245  A    between atoms: _613  and  _614
REMARK  246  A    between atoms: _624  and  _626
REMARK  247  A    between atoms: _626  and  _627
REMARK  248  A    between atoms: _630  and  _632
REMARK  249  A    between atoms: _632  and  _633
REMARK  250  A    between atoms: _632  and  _635
REMARK  251  A    between atoms: _635  and  _636
REMARK  252  A    between atoms: _639  and  _641
REMARK  253  A    between atoms: _641  and  _642
REMARK  254  A    between atoms: _644  and  _646
REMARK  255  A    between atoms: _646  and  _647
REMARK                            x       y       z     vdW  Elec       q    Type
REMARK                         _______ _______ _______ _____ _____    ______ ____
ROOT
ATOM      1  O   HOH     1     -10.359   3.609  -1.930  0.00  0.00    +0.000 OA
ENDROOT
TORSDOF 0
REMARK  Name = ../refined-set-2016/3d91/3d91_pocket.pdb
REMARK  255 active torsions:
REMARK  status: ('A' for Active; 'I' for Inactive)
REMARK    1  A    between atoms: _1  and  _3
REMARK    2  A    between atoms: _3  and  _4
REMARK    3  A    between atoms: _3  and  _6
REMARK    4  A    between atoms: _6  and  _7
REMARK    5  A    between atoms: _12  and  _13
REMARK    6  A    between atoms: _15  and  _17
REMARK    7  A    between atoms: _17  and  _18
REMARK    8  A    between atoms: _17  and  _20
REMARK    9  A    between atoms: _20  and  _21
REMARK   10  A    between atoms: _24  and  _26
REMARK   11  A    between atoms: _26  and  _27
REMARK   12  A    between atoms: _26  and  _29
REMARK   13  A    between atoms: _29  and  _30
REMARK   14  A    between atoms: _33  and  _35
REMARK   15  A    between atoms: _35  and  _36
REMARK   16  A    between atoms: _35  and  _38
REMARK   17  A    between atoms: _38  and  _39
REMARK   18  A    between atoms: _39  and  _40
REMARK   19  A    between atoms: _45  and  _47
REMARK   20  A    between atoms: _47  and  _48
REMARK   21  A    between atoms: _47  and  _50
REMARK   22  A    between atoms: _50  and  _51
REMARK   23  A    between atoms: _56  and  _57
REMARK   24  A    between atoms: _59  and  _61
REMARK   25  A    between atoms: _61  and  _62
REMARK   26  A    between atoms: _61  and  _64
REMARK   27  A    between atoms: _67  and  _69
REMARK   28  A    between atoms: _69  and  _70
REMARK   29  A    between atoms: _69  and  _72
REMARK   30  A    between atoms: _75  and  _77
REMARK   31  A    between atoms: _77  and  _78
REMARK   32  A    between atoms: _77  and  _80
REMARK   33  A    between atoms: _80  and  _81
REMARK   34  A    between atoms: _87  and  _89
REMARK   35  A    between atoms: _89  and  _90
REMARK   36  A    between atoms: _89  and  _92
REMARK   37  A    between atoms: _92  and  _93
REMARK   38  A    between atoms: _96  and  _98
REMARK   39  A    between atoms: _98  and  _99
REMARK   40  A    between atoms: _98  and  _101
REMARK   41  A    between atoms: _101  and  _102
REMARK   42  A    between atoms: _105  and  _107
REMARK   43  A    between atoms: _107  and  _108
REMARK   44  A    between atoms: _110  and  _112
REMARK   45  A    between atoms: _112  and  _113
REMARK   46  A    between atoms: _112  and  _115
REMARK   47  A    between atoms: _115  and  _116
REMARK   48  A    between atoms: _118  and  _120
REMARK   49  A    between atoms: _120  and  _121
REMARK   50  A    between atoms: _120  and  _123
REMARK   51  A    between atoms: _123  and  _124
REMARK   52  A    between atoms: _126  and  _128
REMARK   53  A    between atoms: _128  and  _129
REMARK   54  A    between atoms: _128  and  _131
REMARK   55  A    between atoms: _131  and  _132
REMARK   56  A    between atoms: _142  and  _144
REMARK   57  A    between atoms: _144  and  _145
REMARK   58  A    between atoms: _144  and  _147
REMARK   59  A    between atoms: _147  and  _148
REMARK   60  A    between atoms: _153  and  _155
REMARK   61  A    between atoms: _155  and  _156
REMARK   62  A    between atoms: _155  and  _158
REMARK   63  A    between atoms: _158  and  _159
REMARK   64  A    between atoms: _162  and  _164
REMARK   65  A    between atoms: _164  and  _165
REMARK   66  A    between atoms: _164  and  _167
REMARK   67  A    between atoms: _167  and  _168
REMARK   68  A    between atoms: _168  and  _169
REMARK   69  A    between atoms: _169  and  _170
REMARK   70  A    between atoms: _179  and  _181
REMARK   71  A    between atoms: _181  and  _182
REMARK   72  A    between atoms: _181  and  _184
REMARK   73  A    between atoms: _184  and  _185
REMARK   74  A    between atoms: _190  and  _191
REMARK   75  A    between atoms: _193  and  _195
REMARK   76  A    between atoms: _195  and  _196
REMARK   77  A    between atoms: _195  and  _198
REMARK   78  A    between atoms: _198  and  _199
REMARK   79  A    between atoms: _201  and  _203
REMARK   80  A    between atoms: _203  and  _204
REMARK   81  A    between atoms: _203  and  _206
REMARK   82  A    between atoms: _206  and  _207
REMARK   83  A    between atoms: _210  and  _212
REMARK   84  A    between atoms: _212  and  _213
REMARK   85  A    between atoms: _215  and  _217
REMARK   86  A    between atoms: _217  and  _218
REMARK   87  A    between atoms: _217  and  _220
REMARK   88  A    between atoms: _220  and  _221
REMARK   89  A    between atoms: _224  and  _226
REMARK   90  A    between atoms: _226  and  _227
REMARK   91  A    between atoms: _226  and  _229
REMARK   92  A    between atoms: _232  and  _234
REMARK   93  A    between atoms: _234  and  _235
REMARK   94  A    between atoms: _238  and  _240
REMARK   95  A    between atoms: _240  and  _241
REMARK   96  A    between atoms: _240  and  _243
REMARK   97  A    between atoms: _243  and  _244
REMARK   98  A    between atoms: _248  and  _249
REMARK   99  A    between atoms: _254  and  _256
REMARK  100  A    between atoms: _256  and  _257
REMARK  101  A    between atoms: _256  and  _259
REMARK  102  A    between atoms: _259  and  _260
REMARK  103  A    between atoms: _266  and  _268
REMARK  104  A    between atoms: _268  and  _269
REMARK  105  A    between atoms: _268  and  _271
REMARK  106  A    between atoms: _271  and  _272
REMARK  107  A    between atoms: _272  and  _273
REMARK  108  A    between atoms: _275  and  _277
REMARK  109  A    between atoms: _277  and  _278
REMARK  110  A    between atoms: _277  and  _280
REMARK  111  A    between atoms: _280  and  _281
REMARK  112  A    between atoms: _284  and  _286
REMARK  113  A    between atoms: _286  and  _287
REMARK  114  A    between atoms: _290  and  _292
REMARK  115  A    between atoms: _292  and  _293
REMARK  116  A    between atoms: _292  and  _295
REMARK  117  A    between atoms: _295  and  _296
REMARK  118  A    between atoms: _296  and  _297
REMARK  119  A    between atoms: _300  and  _302
REMARK  120  A    between atoms: _302  and  _303
REMARK  121  A    between atoms: _302  and  _305
REMARK  122  A    between atoms: _305  and  _306
REMARK  123  A    between atoms: _312  and  _314
REMARK  124  A    between atoms: _314  and  _315
REMARK  125  A    between atoms: _317  and  _319
REMARK  126  A    between atoms: _319  and  _320
REMARK  127  A    between atoms: _319  and  _322
REMARK  128  A    between atoms: _325  and  _327
REMARK  129  A    between atoms: _327  and  _328
REMARK  130  A    between atoms: _327  and  _330
REMARK  131  A    between atoms: _333  and  _335
REMARK  132  A    between atoms: _335  and  _336
REMARK  133  A    between atoms: _335  and  _338
REMARK  134  A    between atoms: _338  and  _339
REMARK  135  A    between atoms: _339  and  _340
REMARK  136  A    between atoms: _342  and  _344
REMARK  137  A    between atoms: _344  and  _345
REMARK  138  A    between atoms: _344  and  _347
REMARK  139  A    between atoms: _347  and  _348
REMARK  140  A    between atoms: _348  and  _349
REMARK  141  A    between atoms: _354  and  _356
REMARK  142  A    between atoms: _356  and  _357
REMARK  143  A    between atoms: _356  and  _359
REMARK  144  A    between atoms: _362  and  _364
REMARK  145  A    between atoms: _364  and  _365
REMARK  146  A    between atoms: _364  and  _367
REMARK  147  A    between atoms: _367  and  _368
REMARK  148  A    between atoms: _378  and  _380
REMARK  149  A    between atoms: _380  and  _381
REMARK  150  A    between atoms: _380  and  _383
REMARK  151  A    between atoms: _383  and  _384
REMARK  152  A    between atoms: _387  and  _389
REMARK  153  A    between atoms: _389  and  _390
REMARK  154  A    between atoms: _389  and  _392
REMARK  155  A    between atoms: _395  and  _397
REMARK  156  A    between atoms: _397  and  _398
REMARK  157  A    between atoms: _397  and  _400
REMARK  158  A    between atoms: _400  and  _401
REMARK  159  A    between atoms: _404  and  _406
REMARK  160  A    between atoms: _406  and  _407
REMARK  161  A    between atoms: _406  and  _409
REMARK  162  A    between atoms: _409  and  _410
REMARK  163  A    between atoms: _413  and  _415
REMARK  164  A    between atoms: _415  and  _416
REMARK  165  A    between atoms: _418  and  _420
REMARK  166  A    between atoms: _420  and  _421
REMARK  167  A    between atoms: _424  and  _426
REMARK  168  A    between atoms: _426  and  _427
REMARK  169  A    between atoms: _426  and  _429
REMARK  170  A    between atoms: _429  and  _430
REMARK  171  A    between atoms: _432  and  _434
REMARK  172  A    between atoms: _434  and  _435
REMARK  173  A    between atoms: _434  and  _437
REMARK  174  A    between atoms: _437  and  _438
REMARK  175  A    between atoms: _443  and  _444
REMARK  176  A    between atoms: _446  and  _448
REMARK  177  A    between atoms: _448  and  _449
REMARK  178  A    between atoms: _448  and  _451
REMARK  179  A    between atoms: _451  and  _452
REMARK  180  A    between atoms: _455  and  _457
REMARK  181  A    between atoms: _457  and  _458
REMARK  182  A    between atoms: _457  and  _460
REMARK  183  A    between atoms: _460  and  _461
REMARK  184  A    between atoms: _463  and  _465
REMARK  185  A    between atoms: _465  and  _466
REMARK  186  A    between atoms: _468  and  _470
REMARK  187  A    between atoms: _470  and  _471
REMARK  188  A    between atoms: _470  and  _473
REMARK  189  A    between atoms: _473  and  _474
REMARK  190  A    between atoms: _480  and  _482
REMARK  191  A    between atoms: _482  and  _483
REMARK  192  A    between atoms: _482  and  _485
REMARK  193  A    between atoms: _485  and  _486
REMARK  194  A    between atoms: _489  and  _491
REMARK  195  A    between atoms: _491  and  _492
REMARK  196  A    between atoms: _491  and  _494
REMARK  197  A    between atoms: _494  and  _495
REMARK  198  A    between atoms: _501  and  _503
REMARK  199  A    between atoms: _503  and  _504
REMARK  200  A    between atoms: _503  and  _506
REMARK  201  A    between atoms: _506  and  _507
REMARK  202  A    between atoms: _510  and  _512
REMARK  203  A    between atoms: _512  and  _513
REMARK  204  A    between atoms: _512  and  _515
REMARK  205  A    between atoms: _515  and  _516
REMARK  206  A    between atoms: _519  and  _521
REMARK  207  A    between atoms: _521  and  _522
REMARK  208  A    between atoms: _525  and  _527
REMARK  209  A    between atoms: _527  and  _528
REMARK  210  A    between atoms: _527  and  _530
REMARK  211  A    between atoms: _530  and  _531
REMARK  212  A    between atoms: _534  and  _536
REMARK  213  A    between atoms: _536  and  _537
REMARK  214  A    between atoms: _536  and  _539
REMARK  215  A    between atoms: _539  and  _540
REMARK  216  A    between atoms: _545  and  _547
REMARK  217  A    between atoms: _547  and  _548
REMARK  218  A    between atoms: _551  and  _553
REMARK  219  A    between atoms: _553  and  _554
REMARK  220  A    between atoms: _553  and  _556
REMARK  221  A    between atoms: _556  and  _557
REMARK  222  A    between atoms: _557  and  _558
REMARK  223  A    between atoms: _560  and  _562
REMARK  224  A    between atoms: _562  and  _563
REMARK  225  A    between atoms: _562  and  _565
REMARK  226  A    between atoms: _565  and  _566
REMARK  227  A    between atoms: _569  and  _571
REMARK  228  A    between atoms: _571  and  _572
REMARK  229  A    between atoms: _571  and  _574
REMARK  230  A    between atoms: _574  and  _575
REMARK  231  A    between atoms: _579  and  _580
REMARK  232  A    between atoms: _585  and  _587
REMARK  233  A    between atoms: _587  and  _588
REMARK  234  A    between atoms: _587  and  _590
REMARK  235  A    between atoms: _590  and  _591
REMARK  236  A    between atoms: _594  and  _596
REMARK  237  A    between atoms: _596  and  _597
REMARK  238  A    between atoms: _599  and  _601
REMARK  239  A    between atoms: _601  and  _602
REMARK  240  A    between atoms: _601  and  _604
REMARK  241  A    between atoms: _604  and  _605
REMARK  242  A    between atoms: _608  and  _610
REMARK  243  A    between atoms: _610  and  _611
REMARK  244  A    between atoms: _610  and  _613
REMARK  245  A    between atoms: _613  and  _614
REMARK  246  A    between atoms: _624  and  _626
REMARK  247  A    between atoms: _626  and  _627
REMARK  248  A    between atoms: _630  and  _632
REMARK  249  A    between atoms: _632  and  _633
REMARK  250  A    between atoms: _632  and  _635
REMARK  251  A    between atoms: _635  and  _636
REMARK  252  A    between atoms: _639  and  _641
REMARK  253  A    between atoms: _641  and  _642
REMARK  254  A    between atoms: _644  and  _646
REMARK  255  A    between atoms: _646  and  _647
REMARK                            x       y       z     vdW  Elec       q    Type
REMARK                         _______ _______ _______ _____ _____    ______ ____
ROOT
ATOM      1  O   HOH     1      -7.110  -3.023  -5.107  0.00  0.00    +0.000 OA
ENDROOT
TORSDOF 0
REMARK  Name = ../refined-set-2016/3d91/3d91_pocket.pdb
REMARK  255 active torsions:
REMARK  status: ('A' for Active; 'I' for Inactive)
REMARK    1  A    between atoms: _1  and  _3
REMARK    2  A    between atoms: _3  and  _4
REMARK    3  A    between atoms: _3  and  _6
REMARK    4  A    between atoms: _6  and  _7
REMARK    5  A    between atoms: _12  and  _13
REMARK    6  A    between atoms: _15  and  _17
REMARK    7  A    between atoms: _17  and  _18
REMARK    8  A    between atoms: _17  and  _20
REMARK    9  A    between atoms: _20  and  _21
REMARK   10  A    between atoms: _24  and  _26
REMARK   11  A    between atoms: _26  and  _27
REMARK   12  A    between atoms: _26  and  _29
REMARK   13  A    between atoms: _29  and  _30
REMARK   14  A    between atoms: _33  and  _35
REMARK   15  A    between atoms: _35  and  _36
REMARK   16  A    between atoms: _35  and  _38
REMARK   17  A    between atoms: _38  and  _39
REMARK   18  A    between atoms: _39  and  _40
REMARK   19  A    between atoms: _45  and  _47
REMARK   20  A    between atoms: _47  and  _48
REMARK   21  A    between atoms: _47  and  _50
REMARK   22  A    between atoms: _50  and  _51
REMARK   23  A    between atoms: _56  and  _57
REMARK   24  A    between atoms: _59  and  _61
REMARK   25  A    between atoms: _61  and  _62
REMARK   26  A    between atoms: _61  and  _64
REMARK   27  A    between atoms: _67  and  _69
REMARK   28  A    between atoms: _69  and  _70
REMARK   29  A    between atoms: _69  and  _72
REMARK   30  A    between atoms: _75  and  _77
REMARK   31  A    between atoms: _77  and  _78
REMARK   32  A    between atoms: _77  and  _80
REMARK   33  A    between atoms: _80  and  _81
REMARK   34  A    between atoms: _87  and  _89
REMARK   35  A    between atoms: _89  and  _90
REMARK   36  A    between atoms: _89  and  _92
REMARK   37  A    between atoms: _92  and  _93
REMARK   38  A    between atoms: _96  and  _98
REMARK   39  A    between atoms: _98  and  _99
REMARK   40  A    between atoms: _98  and  _101
REMARK   41  A    between atoms: _101  and  _102
REMARK   42  A    between atoms: _105  and  _107
REMARK   43  A    between atoms: _107  and  _108
REMARK   44  A    between atoms: _110  and  _112
REMARK   45  A    between atoms: _112  and  _113
REMARK   46  A    between atoms: _112  and  _115
REMARK   47  A    between atoms: _115  and  _116
REMARK   48  A    between atoms: _118  and  _120
REMARK   49  A    between atoms: _120  and  _121
REMARK   50  A    between atoms: _120  and  _123
REMARK   51  A    between atoms: _123  and  _124
REMARK   52  A    between atoms: _126  and  _128
REMARK   53  A    between atoms: _128  and  _129
REMARK   54  A    between atoms: _128  and  _131
REMARK   55  A    between atoms: _131  and  _132
REMARK   56  A    between atoms: _142  and  _144
REMARK   57  A    between atoms: _144  and  _145
REMARK   58  A    between atoms: _144  and  _147
REMARK   59  A    between atoms: _147  and  _148
REMARK   60  A    between atoms: _153  and  _155
REMARK   61  A    between atoms: _155  and  _156
REMARK   62  A    between atoms: _155  and  _158
REMARK   63  A    between atoms: _158  and  _159
REMARK   64  A    between atoms: _162  and  _164
REMARK   65  A    between atoms: _164  and  _165
REMARK   66  A    between atoms: _164  and  _167
REMARK   67  A    between atoms: _167  and  _168
REMARK   68  A    between atoms: _168  and  _169
REMARK   69  A    between atoms: _169  and  _170
REMARK   70  A    between atoms: _179  and  _181
REMARK   71  A    between atoms: _181  and  _182
REMARK   72  A    between atoms: _181  and  _184
REMARK   73  A    between atoms: _184  and  _185
REMARK   74  A    between atoms: _190  and  _191
REMARK   75  A    between atoms: _193  and  _195
REMARK   76  A    between atoms: _195  and  _196
REMARK   77  A    between atoms: _195  and  _198
REMARK   78  A    between atoms: _198  and  _199
REMARK   79  A    between atoms: _201  and  _203
REMARK   80  A    between atoms: _203  and  _204
REMARK   81  A    between atoms: _203  and  _206
REMARK   82  A    between atoms: _206  and  _207
REMARK   83  A    between atoms: _210  and  _212
REMARK   84  A    between atoms: _212  and  _213
REMARK   85  A    between atoms: _215  and  _217
REMARK   86  A    between atoms: _217  and  _218
REMARK   87  A    between atoms: _217  and  _220
REMARK   88  A    between atoms: _220  and  _221
REMARK   89  A    between atoms: _224  and  _226
REMARK   90  A    between atoms: _226  and  _227
REMARK   91  A    between atoms: _226  and  _229
REMARK   92  A    between atoms: _232  and  _234
REMARK   93  A    between atoms: _234  and  _235
REMARK   94  A    between atoms: _238  and  _240
REMARK   95  A    between atoms: _240  and  _241
REMARK   96  A    between atoms: _240  and  _243
REMARK   97  A    between atoms: _243  and  _244
REMARK   98  A    between atoms: _248  and  _249
REMARK   99  A    between atoms: _254  and  _256
REMARK  100  A    between atoms: _256  and  _257
REMARK  101  A    between atoms: _256  and  _259
REMARK  102  A    between atoms: _259  and  _260
REMARK  103  A    between atoms: _266  and  _268
REMARK  104  A    between atoms: _268  and  _269
REMARK  105  A    between atoms: _268  and  _271
REMARK  106  A    between atoms: _271  and  _272
REMARK  107  A    between atoms: _272  and  _273
REMARK  108  A    between atoms: _275  and  _277
REMARK  109  A    between atoms: _277  and  _278
REMARK  110  A    between atoms: _277  and  _280
REMARK  111  A    between atoms: _280  and  _281
REMARK  112  A    between atoms: _284  and  _286
REMARK  113  A    between atoms: _286  and  _287
REMARK  114  A    between atoms: _290  and  _292
REMARK  115  A    between atoms: _292  and  _293
REMARK  116  A    between atoms: _292  and  _295
REMARK  117  A    between atoms: _295  and  _296
REMARK  118  A    between atoms: _296  and  _297
REMARK  119  A    between atoms: _300  and  _302
REMARK  120  A    between atoms: _302  and  _303
REMARK  121  A    between atoms: _302  and  _305
REMARK  122  A    between atoms: _305  and  _306
REMARK  123  A    between atoms: _312  and  _314
REMARK  124  A    between atoms: _314  and  _315
REMARK  125  A    between atoms: _317  and  _319
REMARK  126  A    between atoms: _319  and  _320
REMARK  127  A    between atoms: _319  and  _322
REMARK  128  A    between atoms: _325  and  _327
REMARK  129  A    between atoms: _327  and  _328
REMARK  130  A    between atoms: _327  and  _330
REMARK  131  A    between atoms: _333  and  _335
REMARK  132  A    between atoms: _335  and  _336
REMARK  133  A    between atoms: _335  and  _338
REMARK  134  A    between atoms: _338  and  _339
REMARK  135  A    between atoms: _339  and  _340
REMARK  136  A    between atoms: _342  and  _344
REMARK  137  A    between atoms: _344  and  _345
REMARK  138  A    between atoms: _344  and  _347
REMARK  139  A    between atoms: _347  and  _348
REMARK  140  A    between atoms: _348  and  _349
REMARK  141  A    between atoms: _354  and  _356
REMARK  142  A    between atoms: _356  and  _357
REMARK  143  A    between atoms: _356  and  _359
REMARK  144  A    between atoms: _362  and  _364
REMARK  145  A    between atoms: _364  and  _365
REMARK  146  A    between atoms: _364  and  _367
REMARK  147  A    between atoms: _367  and  _368
REMARK  148  A    between atoms: _378  and  _380
REMARK  149  A    between atoms: _380  and  _381
REMARK  150  A    between atoms: _380  and  _383
REMARK  151  A    between atoms: _383  and  _384
REMARK  152  A    between atoms: _387  and  _389
REMARK  153  A    between atoms: _389  and  _390
REMARK  154  A    between atoms: _389  and  _392
REMARK  155  A    between atoms: _395  and  _397
REMARK  156  A    between atoms: _397  and  _398
REMARK  157  A    between atoms: _397  and  _400
REMARK  158  A    between atoms: _400  and  _401
REMARK  159  A    between atoms: _404  and  _406
REMARK  160  A    between atoms: _406  and  _407
REMARK  161  A    between atoms: _406  and  _409
REMARK  162  A    between atoms: _409  and  _410
REMARK  163  A    between atoms: _413  and  _415
REMARK  164  A    between atoms: _415  and  _416
REMARK  165  A    between atoms: _418  and  _420
REMARK  166  A    between atoms: _420  and  _421
REMARK  167  A    between atoms: _424  and  _426
REMARK  168  A    between atoms: _426  and  _427
REMARK  169  A    between atoms: _426  and  _429
REMARK  170  A    between atoms: _429  and  _430
REMARK  171  A    between atoms: _432  and  _434
REMARK  172  A    between atoms: _434  and  _435
REMARK  173  A    between atoms: _434  and  _437
REMARK  174  A    between atoms: _437  and  _438
REMARK  175  A    between atoms: _443  and  _444
REMARK  176  A    between atoms: _446  and  _448
REMARK  177  A    between atoms: _448  and  _449
REMARK  178  A    between atoms: _448  and  _451
REMARK  179  A    between atoms: _451  and  _452
REMARK  180  A    between atoms: _455  and  _457
REMARK  181  A    between atoms: _457  and  _458
REMARK  182  A    between atoms: _457  and  _460
REMARK  183  A    between atoms: _460  and  _461
REMARK  184  A    between atoms: _463  and  _465
REMARK  185  A    between atoms: _465  and  _466
REMARK  186  A    between atoms: _468  and  _470
REMARK  187  A    between atoms: _470  and  _471
REMARK  188  A    between atoms: _470  and  _473
REMARK  189  A    between atoms: _473  and  _474
REMARK  190  A    between atoms: _480  and  _482
REMARK  191  A    between atoms: _482  and  _483
REMARK  192  A    between atoms: _482  and  _485
REMARK  193  A    between atoms: _485  and  _486
REMARK  194  A    between atoms: _489  and  _491
REMARK  195  A    between atoms: _491  and  _492
REMARK  196  A    between atoms: _491  and  _494
REMARK  197  A    between atoms: _494  and  _495
REMARK  198  A    between atoms: _501  and  _503
REMARK  199  A    between atoms: _503  and  _504
REMARK  200  A    between atoms: _503  and  _506
REMARK  201  A    between atoms: _506  and  _507
REMARK  202  A    between atoms: _510  and  _512
REMARK  203  A    between atoms: _512  and  _513
REMARK  204  A    between atoms: _512  and  _515
REMARK  205  A    between atoms: _515  and  _516
REMARK  206  A    between atoms: _519  and  _521
REMARK  207  A    between atoms: _521  and  _522
REMARK  208  A    between atoms: _525  and  _527
REMARK  209  A    between atoms: _527  and  _528
REMARK  210  A    between atoms: _527  and  _530
REMARK  211  A    between atoms: _530  and  _531
REMARK  212  A    between atoms: _534  and  _536
REMARK  213  A    between atoms: _536  and  _537
REMARK  214  A    between atoms: _536  and  _539
REMARK  215  A    between atoms: _539  and  _540
REMARK  216  A    between atoms: _545  and  _547
REMARK  217  A    between atoms: _547  and  _548
REMARK  218  A    between atoms: _551  and  _553
REMARK  219  A    between atoms: _553  and  _554
REMARK  220  A    between atoms: _553  and  _556
REMARK  221  A    between atoms: _556  and  _557
REMARK  222  A    between atoms: _557  and  _558
REMARK  223  A    between atoms: _560  and  _562
REMARK  224  A    between atoms: _562  and  _563
REMARK  225  A    between atoms: _562  and  _565
REMARK  226  A    between atoms: _565  and  _566
REMARK  227  A    between atoms: _569  and  _571
REMARK  228  A    between atoms: _571  and  _572
REMARK  229  A    between atoms: _571  and  _574
REMARK  230  A    between atoms: _574  and  _575
REMARK  231  A    between atoms: _579  and  _580
REMARK  232  A    between atoms: _585  and  _587
REMARK  233  A    between atoms: _587  and  _588
REMARK  234  A    between atoms: _587  and  _590
REMARK  235  A    between atoms: _590  and  _591
REMARK  236  A    between atoms: _594  and  _596
REMARK  237  A    between atoms: _596  and  _597
REMARK  238  A    between atoms: _599  and  _601
REMARK  239  A    between atoms: _601  and  _602
REMARK  240  A    between atoms: _601  and  _604
REMARK  241  A    between atoms: _604  and  _605
REMARK  242  A    between atoms: _608  and  _610
REMARK  243  A    between atoms: _610  and  _611
REMARK  244  A    between atoms: _610  and  _613
REMARK  245  A    between atoms: _613  and  _614
REMARK  246  A    between atoms: _624  and  _626
REMARK  247  A    between atoms: _626  and  _627
REMARK  248  A    between atoms: _630  and  _632
REMARK  249  A    between atoms: _632  and  _633
REMARK  250  A    between atoms: _632  and  _635
REMARK  251  A    between atoms: _635  and  _636
REMARK  252  A    between atoms: _639  and  _641
REMARK  253  A    between atoms: _641  and  _642
REMARK  254  A    between atoms: _644  and  _646
REMARK  255  A    between atoms: _646  and  _647
REMARK                            x       y       z     vdW  Elec       q    Type
REMARK                         _______ _______ _______ _____ _____    ______ ____
ROOT
ATOM      1  O   HOH     1      -5.184  -0.719   1.067  0.00  0.00    +0.000 OA
ENDROOT
TORSDOF 0
REMARK  Name = ../refined-set-2016/3d91/3d91_pocket.pdb
REMARK  255 active torsions:
REMARK  status: ('A' for Active; 'I' for Inactive)
REMARK    1  A    between atoms: _1  and  _3
REMARK    2  A    between atoms: _3  and  _4
REMARK    3  A    between atoms: _3  and  _6
REMARK    4  A    between atoms: _6  and  _7
REMARK    5  A    between atoms: _12  and  _13
REMARK    6  A    between atoms: _15  and  _17
REMARK    7  A    between atoms: _17  and  _18
REMARK    8  A    between atoms: _17  and  _20
REMARK    9  A    between atoms: _20  and  _21
REMARK   10  A    between atoms: _24  and  _26
REMARK   11  A    between atoms: _26  and  _27
REMARK   12  A    between atoms: _26  and  _29
REMARK   13  A    between atoms: _29  and  _30
REMARK   14  A    between atoms: _33  and  _35
REMARK   15  A    between atoms: _35  and  _36
REMARK   16  A    between atoms: _35  and  _38
REMARK   17  A    between atoms: _38  and  _39
REMARK   18  A    between atoms: _39  and  _40
REMARK   19  A    between atoms: _45  and  _47
REMARK   20  A    between atoms: _47  and  _48
REMARK   21  A    between atoms: _47  and  _50
REMARK   22  A    between atoms: _50  and  _51
REMARK   23  A    between atoms: _56  and  _57
REMARK   24  A    between atoms: _59  and  _61
REMARK   25  A    between atoms: _61  and  _62
REMARK   26  A    between atoms: _61  and  _64
REMARK   27  A    between atoms: _67  and  _69
REMARK   28  A    between atoms: _69  and  _70
REMARK   29  A    between atoms: _69  and  _72
REMARK   30  A    between atoms: _75  and  _77
REMARK   31  A    between atoms: _77  and  _78
REMARK   32  A    between atoms: _77  and  _80
REMARK   33  A    between atoms: _80  and  _81
REMARK   34  A    between atoms: _87  and  _89
REMARK   35  A    between atoms: _89  and  _90
REMARK   36  A    between atoms: _89  and  _92
REMARK   37  A    between atoms: _92  and  _93
REMARK   38  A    between atoms: _96  and  _98
REMARK   39  A    between atoms: _98  and  _99
REMARK   40  A    between atoms: _98  and  _101
REMARK   41  A    between atoms: _101  and  _102
REMARK   42  A    between atoms: _105  and  _107
REMARK   43  A    between atoms: _107  and  _108
REMARK   44  A    between atoms: _110  and  _112
REMARK   45  A    between atoms: _112  and  _113
REMARK   46  A    between atoms: _112  and  _115
REMARK   47  A    between atoms: _115  and  _116
REMARK   48  A    between atoms: _118  and  _120
REMARK   49  A    between atoms: _120  and  _121
REMARK   50  A    between atoms: _120  and  _123
REMARK   51  A    between atoms: _123  and  _124
REMARK   52  A    between atoms: _126  and  _128
REMARK   53  A    between atoms: _128  and  _129
REMARK   54  A    between atoms: _128  and  _131
REMARK   55  A    between atoms: _131  and  _132
REMARK   56  A    between atoms: _142  and  _144
REMARK   57  A    between atoms: _144  and  _145
REMARK   58  A    between atoms: _144  and  _147
REMARK   59  A    between atoms: _147  and  _148
REMARK   60  A    between atoms: _153  and  _155
REMARK   61  A    between atoms: _155  and  _156
REMARK   62  A    between atoms: _155  and  _158
REMARK   63  A    between atoms: _158  and  _159
REMARK   64  A    between atoms: _162  and  _164
REMARK   65  A    between atoms: _164  and  _165
REMARK   66  A    between atoms: _164  and  _167
REMARK   67  A    between atoms: _167  and  _168
REMARK   68  A    between atoms: _168  and  _169
REMARK   69  A    between atoms: _169  and  _170
REMARK   70  A    between atoms: _179  and  _181
REMARK   71  A    between atoms: _181  and  _182
REMARK   72  A    between atoms: _181  and  _184
REMARK   73  A    between atoms: _184  and  _185
REMARK   74  A    between atoms: _190  and  _191
REMARK   75  A    between atoms: _193  and  _195
REMARK   76  A    between atoms: _195  and  _196
REMARK   77  A    between atoms: _195  and  _198
REMARK   78  A    between atoms: _198  and  _199
REMARK   79  A    between atoms: _201  and  _203
REMARK   80  A    between atoms: _203  and  _204
REMARK   81  A    between atoms: _203  and  _206
REMARK   82  A    between atoms: _206  and  _207
REMARK   83  A    between atoms: _210  and  _212
REMARK   84  A    between atoms: _212  and  _213
REMARK   85  A    between atoms: _215  and  _217
REMARK   86  A    between atoms: _217  and  _218
REMARK   87  A    between atoms: _217  and  _220
REMARK   88  A    between atoms: _220  and  _221
REMARK   89  A    between atoms: _224  and  _226
REMARK   90  A    between atoms: _226  and  _227
REMARK   91  A    between atoms: _226  and  _229
REMARK   92  A    between atoms: _232  and  _234
REMARK   93  A    between atoms: _234  and  _235
REMARK   94  A    between atoms: _238  and  _240
REMARK   95  A    between atoms: _240  and  _241
REMARK   96  A    between atoms: _240  and  _243
REMARK   97  A    between atoms: _243  and  _244
REMARK   98  A    between atoms: _248  and  _249
REMARK   99  A    between atoms: _254  and  _256
REMARK  100  A    between atoms: _256  and  _257
REMARK  101  A    between atoms: _256  and  _259
REMARK  102  A    between atoms: _259  and  _260
REMARK  103  A    between atoms: _266  and  _268
REMARK  104  A    between atoms: _268  and  _269
REMARK  105  A    between atoms: _268  and  _271
REMARK  106  A    between atoms: _271  and  _272
REMARK  107  A    between atoms: _272  and  _273
REMARK  108  A    between atoms: _275  and  _277
REMARK  109  A    between atoms: _277  and  _278
REMARK  110  A    between atoms: _277  and  _280
REMARK  111  A    between atoms: _280  and  _281
REMARK  112  A    between atoms: _284  and  _286
REMARK  113  A    between atoms: _286  and  _287
REMARK  114  A    between atoms: _290  and  _292
REMARK  115  A    between atoms: _292  and  _293
REMARK  116  A    between atoms: _292  and  _295
REMARK  117  A    between atoms: _295  and  _296
REMARK  118  A    between atoms: _296  and  _297
REMARK  119  A    between atoms: _300  and  _302
REMARK  120  A    between atoms: _302  and  _303
REMARK  121  A    between atoms: _302  and  _305
REMARK  122  A    between atoms: _305  and  _306
REMARK  123  A    between atoms: _312  and  _314
REMARK  124  A    between atoms: _314  and  _315
REMARK  125  A    between atoms: _317  and  _319
REMARK  126  A    between atoms: _319  and  _320
REMARK  127  A    between atoms: _319  and  _322
REMARK  128  A    between atoms: _325  and  _327
REMARK  129  A    between atoms: _327  and  _328
REMARK  130  A    between atoms: _327  and  _330
REMARK  131  A    between atoms: _333  and  _335
REMARK  132  A    between atoms: _335  and  _336
REMARK  133  A    between atoms: _335  and  _338
REMARK  134  A    between atoms: _338  and  _339
REMARK  135  A    between atoms: _339  and  _340
REMARK  136  A    between atoms: _342  and  _344
REMARK  137  A    between atoms: _344  and  _345
REMARK  138  A    between atoms: _344  and  _347
REMARK  139  A    between atoms: _347  and  _348
REMARK  140  A    between atoms: _348  and  _349
REMARK  141  A    between atoms: _354  and  _356
REMARK  142  A    between atoms: _356  and  _357
REMARK  143  A    between atoms: _356  and  _359
REMARK  144  A    between atoms: _362  and  _364
REMARK  145  A    between atoms: _364  and  _365
REMARK  146  A    between atoms: _364  and  _367
REMARK  147  A    between atoms: _367  and  _368
REMARK  148  A    between atoms: _378  and  _380
REMARK  149  A    between atoms: _380  and  _381
REMARK  150  A    between atoms: _380  and  _383
REMARK  151  A    between atoms: _383  and  _384
REMARK  152  A    between atoms: _387  and  _389
REMARK  153  A    between atoms: _389  and  _390
REMARK  154  A    between atoms: _389  and  _392
REMARK  155  A    between atoms: _395  and  _397
REMARK  156  A    between atoms: _397  and  _398
REMARK  157  A    between atoms: _397  and  _400
REMARK  158  A    between atoms: _400  and  _401
REMARK  159  A    between atoms: _404  and  _406
REMARK  160  A    between atoms: _406  and  _407
REMARK  161  A    between atoms: _406  and  _409
REMARK  162  A    between atoms: _409  and  _410
REMARK  163  A    between atoms: _413  and  _415
REMARK  164  A    between atoms: _415  and  _416
REMARK  165  A    between atoms: _418  and  _420
REMARK  166  A    between atoms: _420  and  _421
REMARK  167  A    between atoms: _424  and  _426
REMARK  168  A    between atoms: _426  and  _427
REMARK  169  A    between atoms: _426  and  _429
REMARK  170  A    between atoms: _429  and  _430
REMARK  171  A    between atoms: _432  and  _434
REMARK  172  A    between atoms: _434  and  _435
REMARK  173  A    between atoms: _434  and  _437
REMARK  174  A    between atoms: _437  and  _438
REMARK  175  A    between atoms: _443  and  _444
REMARK  176  A    between atoms: _446  and  _448
REMARK  177  A    between atoms: _448  and  _449
REMARK  178  A    between atoms: _448  and  _451
REMARK  179  A    between atoms: _451  and  _452
REMARK  180  A    between atoms: _455  and  _457
REMARK  181  A    between atoms: _457  and  _458
REMARK  182  A    between atoms: _457  and  _460
REMARK  183  A    between atoms: _460  and  _461
REMARK  184  A    between atoms: _463  and  _465
REMARK  185  A    between atoms: _465  and  _466
REMARK  186  A    between atoms: _468  and  _470
REMARK  187  A    between atoms: _470  and  _471
REMARK  188  A    between atoms: _470  and  _473
REMARK  189  A    between atoms: _473  and  _474
REMARK  190  A    between atoms: _480  and  _482
REMARK  191  A    between atoms: _482  and  _483
REMARK  192  A    between atoms: _482  and  _485
REMARK  193  A    between atoms: _485  and  _486
REMARK  194  A    between atoms: _489  and  _491
REMARK  195  A    between atoms: _491  and  _492
REMARK  196  A    between atoms: _491  and  _494
REMARK  197  A    between atoms: _494  and  _495
REMARK  198  A    between atoms: _501  and  _503
REMARK  199  A    between atoms: _503  and  _504
REMARK  200  A    between atoms: _503  and  _506
REMARK  201  A    between atoms: _506  and  _507
REMARK  202  A    between atoms: _510  and  _512
REMARK  203  A    between atoms: _512  and  _513
REMARK  204  A    between atoms: _512  and  _515
REMARK  205  A    between atoms: _515  and  _516
REMARK  206  A    between atoms: _519  and  _521
REMARK  207  A    between atoms: _521  and  _522
REMARK  208  A    between atoms: _525  and  _527
REMARK  209  A    between atoms: _527  and  _528
REMARK  210  A    between atoms: _527  and  _530
REMARK  211  A    between atoms: _530  and  _531
REMARK  212  A    between atoms: _534  and  _536
REMARK  213  A    between atoms: _536  and  _537
REMARK  214  A    between atoms: _536  and  _539
REMARK  215  A    between atoms: _539  and  _540
REMARK  216  A    between atoms: _545  and  _547
REMARK  217  A    between atoms: _547  and  _548
REMARK  218  A    between atoms: _551  and  _553
REMARK  219  A    between atoms: _553  and  _554
REMARK  220  A    between atoms: _553  and  _556
REMARK  221  A    between atoms: _556  and  _557
REMARK  222  A    between atoms: _557  and  _558
REMARK  223  A    between atoms: _560  and  _562
REMARK  224  A    between atoms: _562  and  _563
REMARK  225  A    between atoms: _562  and  _565
REMARK  226  A    between atoms: _565  and  _566
REMARK  227  A    between atoms: _569  and  _571
REMARK  228  A    between atoms: _571  and  _572
REMARK  229  A    between atoms: _571  and  _574
REMARK  230  A    between atoms: _574  and  _575
REMARK  231  A    between atoms: _579  and  _580
REMARK  232  A    between atoms: _585  and  _587
REMARK  233  A    between atoms: _587  and  _588
REMARK  234  A    between atoms: _587  and  _590
REMARK  235  A    between atoms: _590  and  _591
REMARK  236  A    between atoms: _594  and  _596
REMARK  237  A    between atoms: _596  and  _597
REMARK  238  A    between atoms: _599  and  _601
REMARK  239  A    between atoms: _601  and  _602
REMARK  240  A    between atoms: _601  and  _604
REMARK  241  A    between atoms: _604  and  _605
REMARK  242  A    between atoms: _608  and  _610
REMARK  243  A    between atoms: _610  and  _611
REMARK  244  A    between atoms: _610  and  _613
REMARK  245  A    between atoms: _613  and  _614
REMARK  246  A    between atoms: _624  and  _626
REMARK  247  A    between atoms: _626  and  _627
REMARK  248  A    between atoms: _630  and  _632
REMARK  249  A    between atoms: _632  and  _633
REMARK  250  A    between atoms: _632  and  _635
REMARK  251  A    between atoms: _635  and  _636
REMARK  252  A    between atoms: _639  and  _641
REMARK  253  A    between atoms: _641  and  _642
REMARK  254  A    between atoms: _644  and  _646
REMARK  255  A    between atoms: _646  and  _647
REMARK                            x       y       z     vdW  Elec       q    Type
REMARK                         _______ _______ _______ _____ _____    ______ ____
ROOT
ATOM      1  O   HOH     1     -10.407  -0.716  -4.280  0.00  0.00    +0.000 OA
ENDROOT
TORSDOF 0
REMARK  Name = ../refined-set-2016/3d91/3d91_pocket.pdb
REMARK  255 active torsions:
REMARK  status: ('A' for Active; 'I' for Inactive)
REMARK    1  A    between atoms: _1  and  _3
REMARK    2  A    between atoms: _3  and  _4
REMARK    3  A    between atoms: _3  and  _6
REMARK    4  A    between atoms: _6  and  _7
REMARK    5  A    between atoms: _12  and  _13
REMARK    6  A    between atoms: _15  and  _17
REMARK    7  A    between atoms: _17  and  _18
REMARK    8  A    between atoms: _17  and  _20
REMARK    9  A    between atoms: _20  and  _21
REMARK   10  A    between atoms: _24  and  _26
REMARK   11  A    between atoms: _26  and  _27
REMARK   12  A    between atoms: _26  and  _29
REMARK   13  A    between atoms: _29  and  _30
REMARK   14  A    between atoms: _33  and  _35
REMARK   15  A    between atoms: _35  and  _36
REMARK   16  A    between atoms: _35  and  _38
REMARK   17  A    between atoms: _38  and  _39
REMARK   18  A    between atoms: _39  and  _40
REMARK   19  A    between atoms: _45  and  _47
REMARK   20  A    between atoms: _47  and  _48
REMARK   21  A    between atoms: _47  and  _50
REMARK   22  A    between atoms: _50  and  _51
REMARK   23  A    between atoms: _56  and  _57
REMARK   24  A    between atoms: _59  and  _61
REMARK   25  A    between atoms: _61  and  _62
REMARK   26  A    between atoms: _61  and  _64
REMARK   27  A    between atoms: _67  and  _69
REMARK   28  A    between atoms: _69  and  _70
REMARK   29  A    between atoms: _69  and  _72
REMARK   30  A    between atoms: _75  and  _77
REMARK   31  A    between atoms: _77  and  _78
REMARK   32  A    between atoms: _77  and  _80
REMARK   33  A    between atoms: _80  and  _81
REMARK   34  A    between atoms: _87  and  _89
REMARK   35  A    between atoms: _89  and  _90
REMARK   36  A    between atoms: _89  and  _92
REMARK   37  A    between atoms: _92  and  _93
REMARK   38  A    between atoms: _96  and  _98
REMARK   39  A    between atoms: _98  and  _99
REMARK   40  A    between atoms: _98  and  _101
REMARK   41  A    between atoms: _101  and  _102
REMARK   42  A    between atoms: _105  and  _107
REMARK   43  A    between atoms: _107  and  _108
REMARK   44  A    between atoms: _110  and  _112
REMARK   45  A    between atoms: _112  and  _113
REMARK   46  A    between atoms: _112  and  _115
REMARK   47  A    between atoms: _115  and  _116
REMARK   48  A    between atoms: _118  and  _120
REMARK   49  A    between atoms: _120  and  _121
REMARK   50  A    between atoms: _120  and  _123
REMARK   51  A    between atoms: _123  and  _124
REMARK   52  A    between atoms: _126  and  _128
REMARK   53  A    between atoms: _128  and  _129
REMARK   54  A    between atoms: _128  and  _131
REMARK   55  A    between atoms: _131  and  _132
REMARK   56  A    between atoms: _142  and  _144
REMARK   57  A    between atoms: _144  and  _145
REMARK   58  A    between atoms: _144  and  _147
REMARK   59  A    between atoms: _147  and  _148
REMARK   60  A    between atoms: _153  and  _155
REMARK   61  A    between atoms: _155  and  _156
REMARK   62  A    between atoms: _155  and  _158
REMARK   63  A    between atoms: _158  and  _159
REMARK   64  A    between atoms: _162  and  _164
REMARK   65  A    between atoms: _164  and  _165
REMARK   66  A    between atoms: _164  and  _167
REMARK   67  A    between atoms: _167  and  _168
REMARK   68  A    between atoms: _168  and  _169
REMARK   69  A    between atoms: _169  and  _170
REMARK   70  A    between atoms: _179  and  _181
REMARK   71  A    between atoms: _181  and  _182
REMARK   72  A    between atoms: _181  and  _184
REMARK   73  A    between atoms: _184  and  _185
REMARK   74  A    between atoms: _190  and  _191
REMARK   75  A    between atoms: _193  and  _195
REMARK   76  A    between atoms: _195  and  _196
REMARK   77  A    between atoms: _195  and  _198
REMARK   78  A    between atoms: _198  and  _199
REMARK   79  A    between atoms: _201  and  _203
REMARK   80  A    between atoms: _203  and  _204
REMARK   81  A    between atoms: _203  and  _206
REMARK   82  A    between atoms: _206  and  _207
REMARK   83  A    between atoms: _210  and  _212
REMARK   84  A    between atoms: _212  and  _213
REMARK   85  A    between atoms: _215  and  _217
REMARK   86  A    between atoms: _217  and  _218
REMARK   87  A    between atoms: _217  and  _220
REMARK   88  A    between atoms: _220  and  _221
REMARK   89  A    between atoms: _224  and  _226
REMARK   90  A    between atoms: _226  and  _227
REMARK   91  A    between atoms: _226  and  _229
REMARK   92  A    between atoms: _232  and  _234
REMARK   93  A    between atoms: _234  and  _235
REMARK   94  A    between atoms: _238  and  _240
REMARK   95  A    between atoms: _240  and  _241
REMARK   96  A    between atoms: _240  and  _243
REMARK   97  A    between atoms: _243  and  _244
REMARK   98  A    between atoms: _248  and  _249
REMARK   99  A    between atoms: _254  and  _256
REMARK  100  A    between atoms: _256  and  _257
REMARK  101  A    between atoms: _256  and  _259
REMARK  102  A    between atoms: _259  and  _260
REMARK  103  A    between atoms: _266  and  _268
REMARK  104  A    between atoms: _268  and  _269
REMARK  105  A    between atoms: _268  and  _271
REMARK  106  A    between atoms: _271  and  _272
REMARK  107  A    between atoms: _272  and  _273
REMARK  108  A    between atoms: _275  and  _277
REMARK  109  A    between atoms: _277  and  _278
REMARK  110  A    between atoms: _277  and  _280
REMARK  111  A    between atoms: _280  and  _281
REMARK  112  A    between atoms: _284  and  _286
REMARK  113  A    between atoms: _286  and  _287
REMARK  114  A    between atoms: _290  and  _292
REMARK  115  A    between atoms: _292  and  _293
REMARK  116  A    between atoms: _292  and  _295
REMARK  117  A    between atoms: _295  and  _296
REMARK  118  A    between atoms: _296  and  _297
REMARK  119  A    between atoms: _300  and  _302
REMARK  120  A    between atoms: _302  and  _303
REMARK  121  A    between atoms: _302  and  _305
REMARK  122  A    between atoms: _305  and  _306
REMARK  123  A    between atoms: _312  and  _314
REMARK  124  A    between atoms: _314  and  _315
REMARK  125  A    between atoms: _317  and  _319
REMARK  126  A    between atoms: _319  and  _320
REMARK  127  A    between atoms: _319  and  _322
REMARK  128  A    between atoms: _325  and  _327
REMARK  129  A    between atoms: _327  and  _328
REMARK  130  A    between atoms: _327  and  _330
REMARK  131  A    between atoms: _333  and  _335
REMARK  132  A    between atoms: _335  and  _336
REMARK  133  A    between atoms: _335  and  _338
REMARK  134  A    between atoms: _338  and  _339
REMARK  135  A    between atoms: _339  and  _340
REMARK  136  A    between atoms: _342  and  _344
REMARK  137  A    between atoms: _344  and  _345
REMARK  138  A    between atoms: _344  and  _347
REMARK  139  A    between atoms: _347  and  _348
REMARK  140  A    between atoms: _348  and  _349
REMARK  141  A    between atoms: _354  and  _356
REMARK  142  A    between atoms: _356  and  _357
REMARK  143  A    between atoms: _356  and  _359
REMARK  144  A    between atoms: _362  and  _364
REMARK  145  A    between atoms: _364  and  _365
REMARK  146  A    between atoms: _364  and  _367
REMARK  147  A    between atoms: _367  and  _368
REMARK  148  A    between atoms: _378  and  _380
REMARK  149  A    between atoms: _380  and  _381
REMARK  150  A    between atoms: _380  and  _383
REMARK  151  A    between atoms: _383  and  _384
REMARK  152  A    between atoms: _387  and  _389
REMARK  153  A    between atoms: _389  and  _390
REMARK  154  A    between atoms: _389  and  _392
REMARK  155  A    between atoms: _395  and  _397
REMARK  156  A    between atoms: _397  and  _398
REMARK  157  A    between atoms: _397  and  _400
REMARK  158  A    between atoms: _400  and  _401
REMARK  159  A    between atoms: _404  and  _406
REMARK  160  A    between atoms: _406  and  _407
REMARK  161  A    between atoms: _406  and  _409
REMARK  162  A    between atoms: _409  and  _410
REMARK  163  A    between atoms: _413  and  _415
REMARK  164  A    between atoms: _415  and  _416
REMARK  165  A    between atoms: _418  and  _420
REMARK  166  A    between atoms: _420  and  _421
REMARK  167  A    between atoms: _424  and  _426
REMARK  168  A    between atoms: _426  and  _427
REMARK  169  A    between atoms: _426  and  _429
REMARK  170  A    between atoms: _429  and  _430
REMARK  171  A    between atoms: _432  and  _434
REMARK  172  A    between atoms: _434  and  _435
REMARK  173  A    between atoms: _434  and  _437
REMARK  174  A    between atoms: _437  and  _438
REMARK  175  A    between atoms: _443  and  _444
REMARK  176  A    between atoms: _446  and  _448
REMARK  177  A    between atoms: _448  and  _449
REMARK  178  A    between atoms: _448  and  _451
REMARK  179  A    between atoms: _451  and  _452
REMARK  180  A    between atoms: _455  and  _457
REMARK  181  A    between atoms: _457  and  _458
REMARK  182  A    between atoms: _457  and  _460
REMARK  183  A    between atoms: _460  and  _461
REMARK  184  A    between atoms: _463  and  _465
REMARK  185  A    between atoms: _465  and  _466
REMARK  186  A    between atoms: _468  and  _470
REMARK  187  A    between atoms: _470  and  _471
REMARK  188  A    between atoms: _470  and  _473
REMARK  189  A    between atoms: _473  and  _474
REMARK  190  A    between atoms: _480  and  _482
REMARK  191  A    between atoms: _482  and  _483
REMARK  192  A    between atoms: _482  and  _485
REMARK  193  A    between atoms: _485  and  _486
REMARK  194  A    between atoms: _489  and  _491
REMARK  195  A    between atoms: _491  and  _492
REMARK  196  A    between atoms: _491  and  _494
REMARK  197  A    between atoms: _494  and  _495
REMARK  198  A    between atoms: _501  and  _503
REMARK  199  A    between atoms: _503  and  _504
REMARK  200  A    between atoms: _503  and  _506
REMARK  201  A    between atoms: _506  and  _507
REMARK  202  A    between atoms: _510  and  _512
REMARK  203  A    between atoms: _512  and  _513
REMARK  204  A    between atoms: _512  and  _515
REMARK  205  A    between atoms: _515  and  _516
REMARK  206  A    between atoms: _519  and  _521
REMARK  207  A    between atoms: _521  and  _522
REMARK  208  A    between atoms: _525  and  _527
REMARK  209  A    between atoms: _527  and  _528
REMARK  210  A    between atoms: _527  and  _530
REMARK  211  A    between atoms: _530  and  _531
REMARK  212  A    between atoms: _534  and  _536
REMARK  213  A    between atoms: _536  and  _537
REMARK  214  A    between atoms: _536  and  _539
REMARK  215  A    between atoms: _539  and  _540
REMARK  216  A    between atoms: _545  and  _547
REMARK  217  A    between atoms: _547  and  _548
REMARK  218  A    between atoms: _551  and  _553
REMARK  219  A    between atoms: _553  and  _554
REMARK  220  A    between atoms: _553  and  _556
REMARK  221  A    between atoms: _556  and  _557
REMARK  222  A    between atoms: _557  and  _558
REMARK  223  A    between atoms: _560  and  _562
REMARK  224  A    between atoms: _562  and  _563
REMARK  225  A    between atoms: _562  and  _565
REMARK  226  A    between atoms: _565  and  _566
REMARK  227  A    between atoms: _569  and  _571
REMARK  228  A    between atoms: _571  and  _572
REMARK  229  A    between atoms: _571  and  _574
REMARK  230  A    between atoms: _574  and  _575
REMARK  231  A    between atoms: _579  and  _580
REMARK  232  A    between atoms: _585  and  _587
REMARK  233  A    between atoms: _587  and  _588
REMARK  234  A    between atoms: _587  and  _590
REMARK  235  A    between atoms: _590  and  _591
REMARK  236  A    between atoms: _594  and  _596
REMARK  237  A    between atoms: _596  and  _597
REMARK  238  A    between atoms: _599  and  _601
REMARK  239  A    between atoms: _601  and  _602
REMARK  240  A    between atoms: _601  and  _604
REMARK  241  A    between atoms: _604  and  _605
REMARK  242  A    between atoms: _608  and  _610
REMARK  243  A    between atoms: _610  and  _611
REMARK  244  A    between atoms: _610  and  _613
REMARK  245  A    between atoms: _613  and  _614
REMARK  246  A    between atoms: _624  and  _626
REMARK  247  A    between atoms: _626  and  _627
REMARK  248  A    between atoms: _630  and  _632
REMARK  249  A    between atoms: _632  and  _633
REMARK  250  A    between atoms: _632  and  _635
REMARK  251  A    between atoms: _635  and  _636
REMARK  252  A    between atoms: _639  and  _641
REMARK  253  A    between atoms: _641  and  _642
REMARK  254  A    between atoms: _644  and  _646
REMARK  255  A    between atoms: _646  and  _647
REMARK                            x       y       z     vdW  Elec       q    Type
REMARK                         _______ _______ _______ _____ _____    ______ ____
ROOT
ATOM      1  O   HOH     1       1.198  -0.832  -7.520  0.00  0.00    +0.000 OA
ENDROOT
TORSDOF 0
REMARK  Name = ../refined-set-2016/3d91/3d91_pocket.pdb
REMARK  255 active torsions:
REMARK  status: ('A' for Active; 'I' for Inactive)
REMARK    1  A    between atoms: _1  and  _3
REMARK    2  A    between atoms: _3  and  _4
REMARK    3  A    between atoms: _3  and  _6
REMARK    4  A    between atoms: _6  and  _7
REMARK    5  A    between atoms: _12  and  _13
REMARK    6  A    between atoms: _15  and  _17
REMARK    7  A    between atoms: _17  and  _18
REMARK    8  A    between atoms: _17  and  _20
REMARK    9  A    between atoms: _20  and  _21
REMARK   10  A    between atoms: _24  and  _26
REMARK   11  A    between atoms: _26  and  _27
REMARK   12  A    between atoms: _26  and  _29
REMARK   13  A    between atoms: _29  and  _30
REMARK   14  A    between atoms: _33  and  _35
REMARK   15  A    between atoms: _35  and  _36
REMARK   16  A    between atoms: _35  and  _38
REMARK   17  A    between atoms: _38  and  _39
REMARK   18  A    between atoms: _39  and  _40
REMARK   19  A    between atoms: _45  and  _47
REMARK   20  A    between atoms: _47  and  _48
REMARK   21  A    between atoms: _47  and  _50
REMARK   22  A    between atoms: _50  and  _51
REMARK   23  A    between atoms: _56  and  _57
REMARK   24  A    between atoms: _59  and  _61
REMARK   25  A    between atoms: _61  and  _62
REMARK   26  A    between atoms: _61  and  _64
REMARK   27  A    between atoms: _67  and  _69
REMARK   28  A    between atoms: _69  and  _70
REMARK   29  A    between atoms: _69  and  _72
REMARK   30  A    between atoms: _75  and  _77
REMARK   31  A    between atoms: _77  and  _78
REMARK   32  A    between atoms: _77  and  _80
REMARK   33  A    between atoms: _80  and  _81
REMARK   34  A    between atoms: _87  and  _89
REMARK   35  A    between atoms: _89  and  _90
REMARK   36  A    between atoms: _89  and  _92
REMARK   37  A    between atoms: _92  and  _93
REMARK   38  A    between atoms: _96  and  _98
REMARK   39  A    between atoms: _98  and  _99
REMARK   40  A    between atoms: _98  and  _101
REMARK   41  A    between atoms: _101  and  _102
REMARK   42  A    between atoms: _105  and  _107
REMARK   43  A    between atoms: _107  and  _108
REMARK   44  A    between atoms: _110  and  _112
REMARK   45  A    between atoms: _112  and  _113
REMARK   46  A    between atoms: _112  and  _115
REMARK   47  A    between atoms: _115  and  _116
REMARK   48  A    between atoms: _118  and  _120
REMARK   49  A    between atoms: _120  and  _121
REMARK   50  A    between atoms: _120  and  _123
REMARK   51  A    between atoms: _123  and  _124
REMARK   52  A    between atoms: _126  and  _128
REMARK   53  A    between atoms: _128  and  _129
REMARK   54  A    between atoms: _128  and  _131
REMARK   55  A    between atoms: _131  and  _132
REMARK   56  A    between atoms: _142  and  _144
REMARK   57  A    between atoms: _144  and  _145
REMARK   58  A    between atoms: _144  and  _147
REMARK   59  A    between atoms: _147  and  _148
REMARK   60  A    between atoms: _153  and  _155
REMARK   61  A    between atoms: _155  and  _156
REMARK   62  A    between atoms: _155  and  _158
REMARK   63  A    between atoms: _158  and  _159
REMARK   64  A    between atoms: _162  and  _164
REMARK   65  A    between atoms: _164  and  _165
REMARK   66  A    between atoms: _164  and  _167
REMARK   67  A    between atoms: _167  and  _168
REMARK   68  A    between atoms: _168  and  _169
REMARK   69  A    between atoms: _169  and  _170
REMARK   70  A    between atoms: _179  and  _181
REMARK   71  A    between atoms: _181  and  _182
REMARK   72  A    between atoms: _181  and  _184
REMARK   73  A    between atoms: _184  and  _185
REMARK   74  A    between atoms: _190  and  _191
REMARK   75  A    between atoms: _193  and  _195
REMARK   76  A    between atoms: _195  and  _196
REMARK   77  A    between atoms: _195  and  _198
REMARK   78  A    between atoms: _198  and  _199
REMARK   79  A    between atoms: _201  and  _203
REMARK   80  A    between atoms: _203  and  _204
REMARK   81  A    between atoms: _203  and  _206
REMARK   82  A    between atoms: _206  and  _207
REMARK   83  A    between atoms: _210  and  _212
REMARK   84  A    between atoms: _212  and  _213
REMARK   85  A    between atoms: _215  and  _217
REMARK   86  A    between atoms: _217  and  _218
REMARK   87  A    between atoms: _217  and  _220
REMARK   88  A    between atoms: _220  and  _221
REMARK   89  A    between atoms: _224  and  _226
REMARK   90  A    between atoms: _226  and  _227
REMARK   91  A    between atoms: _226  and  _229
REMARK   92  A    between atoms: _232  and  _234
REMARK   93  A    between atoms: _234  and  _235
REMARK   94  A    between atoms: _238  and  _240
REMARK   95  A    between atoms: _240  and  _241
REMARK   96  A    between atoms: _240  and  _243
REMARK   97  A    between atoms: _243  and  _244
REMARK   98  A    between atoms: _248  and  _249
REMARK   99  A    between atoms: _254  and  _256
REMARK  100  A    between atoms: _256  and  _257
REMARK  101  A    between atoms: _256  and  _259
REMARK  102  A    between atoms: _259  and  _260
REMARK  103  A    between atoms: _266  and  _268
REMARK  104  A    between atoms: _268  and  _269
REMARK  105  A    between atoms: _268  and  _271
REMARK  106  A    between atoms: _271  and  _272
REMARK  107  A    between atoms: _272  and  _273
REMARK  108  A    between atoms: _275  and  _277
REMARK  109  A    between atoms: _277  and  _278
REMARK  110  A    between atoms: _277  and  _280
REMARK  111  A    between atoms: _280  and  _281
REMARK  112  A    between atoms: _284  and  _286
REMARK  113  A    between atoms: _286  and  _287
REMARK  114  A    between atoms: _290  and  _292
REMARK  115  A    between atoms: _292  and  _293
REMARK  116  A    between atoms: _292  and  _295
REMARK  117  A    between atoms: _295  and  _296
REMARK  118  A    between atoms: _296  and  _297
REMARK  119  A    between atoms: _300  and  _302
REMARK  120  A    between atoms: _302  and  _303
REMARK  121  A    between atoms: _302  and  _305
REMARK  122  A    between atoms: _305  and  _306
REMARK  123  A    between atoms: _312  and  _314
REMARK  124  A    between atoms: _314  and  _315
REMARK  125  A    between atoms: _317  and  _319
REMARK  126  A    between atoms: _319  and  _320
REMARK  127  A    between atoms: _319  and  _322
REMARK  128  A    between atoms: _325  and  _327
REMARK  129  A    between atoms: _327  and  _328
REMARK  130  A    between atoms: _327  and  _330
REMARK  131  A    between atoms: _333  and  _335
REMARK  132  A    between atoms: _335  and  _336
REMARK  133  A    between atoms: _335  and  _338
REMARK  134  A    between atoms: _338  and  _339
REMARK  135  A    between atoms: _339  and  _340
REMARK  136  A    between atoms: _342  and  _344
REMARK  137  A    between atoms: _344  and  _345
REMARK  138  A    between atoms: _344  and  _347
REMARK  139  A    between atoms: _347  and  _348
REMARK  140  A    between atoms: _348  and  _349
REMARK  141  A    between atoms: _354  and  _356
REMARK  142  A    between atoms: _356  and  _357
REMARK  143  A    between atoms: _356  and  _359
REMARK  144  A    between atoms: _362  and  _364
REMARK  145  A    between atoms: _364  and  _365
REMARK  146  A    between atoms: _364  and  _367
REMARK  147  A    between atoms: _367  and  _368
REMARK  148  A    between atoms: _378  and  _380
REMARK  149  A    between atoms: _380  and  _381
REMARK  150  A    between atoms: _380  and  _383
REMARK  151  A    between atoms: _383  and  _384
REMARK  152  A    between atoms: _387  and  _389
REMARK  153  A    between atoms: _389  and  _390
REMARK  154  A    between atoms: _389  and  _392
REMARK  155  A    between atoms: _395  and  _397
REMARK  156  A    between atoms: _397  and  _398
REMARK  157  A    between atoms: _397  and  _400
REMARK  158  A    between atoms: _400  and  _401
REMARK  159  A    between atoms: _404  and  _406
REMARK  160  A    between atoms: _406  and  _407
REMARK  161  A    between atoms: _406  and  _409
REMARK  162  A    between atoms: _409  and  _410
REMARK  163  A    between atoms: _413  and  _415
REMARK  164  A    between atoms: _415  and  _416
REMARK  165  A    between atoms: _418  and  _420
REMARK  166  A    between atoms: _420  and  _421
REMARK  167  A    between atoms: _424  and  _426
REMARK  168  A    between atoms: _426  and  _427
REMARK  169  A    between atoms: _426  and  _429
REMARK  170  A    between atoms: _429  and  _430
REMARK  171  A    between atoms: _432  and  _434
REMARK  172  A    between atoms: _434  and  _435
REMARK  173  A    between atoms: _434  and  _437
REMARK  174  A    between atoms: _437  and  _438
REMARK  175  A    between atoms: _443  and  _444
REMARK  176  A    between atoms: _446  and  _448
REMARK  177  A    between atoms: _448  and  _449
REMARK  178  A    between atoms: _448  and  _451
REMARK  179  A    between atoms: _451  and  _452
REMARK  180  A    between atoms: _455  and  _457
REMARK  181  A    between atoms: _457  and  _458
REMARK  182  A    between atoms: _457  and  _460
REMARK  183  A    between atoms: _460  and  _461
REMARK  184  A    between atoms: _463  and  _465
REMARK  185  A    between atoms: _465  and  _466
REMARK  186  A    between atoms: _468  and  _470
REMARK  187  A    between atoms: _470  and  _471
REMARK  188  A    between atoms: _470  and  _473
REMARK  189  A    between atoms: _473  and  _474
REMARK  190  A    between atoms: _480  and  _482
REMARK  191  A    between atoms: _482  and  _483
REMARK  192  A    between atoms: _482  and  _485
REMARK  193  A    between atoms: _485  and  _486
REMARK  194  A    between atoms: _489  and  _491
REMARK  195  A    between atoms: _491  and  _492
REMARK  196  A    between atoms: _491  and  _494
REMARK  197  A    between atoms: _494  and  _495
REMARK  198  A    between atoms: _501  and  _503
REMARK  199  A    between atoms: _503  and  _504
REMARK  200  A    between atoms: _503  and  _506
REMARK  201  A    between atoms: _506  and  _507
REMARK  202  A    between atoms: _510  and  _512
REMARK  203  A    between atoms: _512  and  _513
REMARK  204  A    between atoms: _512  and  _515
REMARK  205  A    between atoms: _515  and  _516
REMARK  206  A    between atoms: _519  and  _521
REMARK  207  A    between atoms: _521  and  _522
REMARK  208  A    between atoms: _525  and  _527
REMARK  209  A    between atoms: _527  and  _528
REMARK  210  A    between atoms: _527  and  _530
REMARK  211  A    between atoms: _530  and  _531
REMARK  212  A    between atoms: _534  and  _536
REMARK  213  A    between atoms: _536  and  _537
REMARK  214  A    between atoms: _536  and  _539
REMARK  215  A    between atoms: _539  and  _540
REMARK  216  A    between atoms: _545  and  _547
REMARK  217  A    between atoms: _547  and  _548
REMARK  218  A    between atoms: _551  and  _553
REMARK  219  A    between atoms: _553  and  _554
REMARK  220  A    between atoms: _553  and  _556
REMARK  221  A    between atoms: _556  and  _557
REMARK  222  A    between atoms: _557  and  _558
REMARK  223  A    between atoms: _560  and  _562
REMARK  224  A    between atoms: _562  and  _563
REMARK  225  A    between atoms: _562  and  _565
REMARK  226  A    between atoms: _565  and  _566
REMARK  227  A    between atoms: _569  and  _571
REMARK  228  A    between atoms: _571  and  _572
REMARK  229  A    between atoms: _571  and  _574
REMARK  230  A    between atoms: _574  and  _575
REMARK  231  A    between atoms: _579  and  _580
REMARK  232  A    between atoms: _585  and  _587
REMARK  233  A    between atoms: _587  and  _588
REMARK  234  A    between atoms: _587  and  _590
REMARK  235  A    between atoms: _590  and  _591
REMARK  236  A    between atoms: _594  and  _596
REMARK  237  A    between atoms: _596  and  _597
REMARK  238  A    between atoms: _599  and  _601
REMARK  239  A    between atoms: _601  and  _602
REMARK  240  A    between atoms: _601  and  _604
REMARK  241  A    between atoms: _604  and  _605
REMARK  242  A    between atoms: _608  and  _610
REMARK  243  A    between atoms: _610  and  _611
REMARK  244  A    between atoms: _610  and  _613
REMARK  245  A    between atoms: _613  and  _614
REMARK  246  A    between atoms: _624  and  _626
REMARK  247  A    between atoms: _626  and  _627
REMARK  248  A    between atoms: _630  and  _632
REMARK  249  A    between atoms: _632  and  _633
REMARK  250  A    between atoms: _632  and  _635
REMARK  251  A    between atoms: _635  and  _636
REMARK  252  A    between atoms: _639  and  _641
REMARK  253  A    between atoms: _641  and  _642
REMARK  254  A    between atoms: _644  and  _646
REMARK  255  A    between atoms: _646  and  _647
REMARK                            x       y       z     vdW  Elec       q    Type
REMARK                         _______ _______ _______ _____ _____    ______ ____
ROOT
ATOM      1  O   HOH     1       2.048  10.142   2.324  0.00  0.00    +0.000 OA
ENDROOT
TORSDOF 0
REMARK  Name = ../refined-set-2016/3d91/3d91_pocket.pdb
REMARK  255 active torsions:
REMARK  status: ('A' for Active; 'I' for Inactive)
REMARK    1  A    between atoms: _1  and  _3
REMARK    2  A    between atoms: _3  and  _4
REMARK    3  A    between atoms: _3  and  _6
REMARK    4  A    between atoms: _6  and  _7
REMARK    5  A    between atoms: _12  and  _13
REMARK    6  A    between atoms: _15  and  _17
REMARK    7  A    between atoms: _17  and  _18
REMARK    8  A    between atoms: _17  and  _20
REMARK    9  A    between atoms: _20  and  _21
REMARK   10  A    between atoms: _24  and  _26
REMARK   11  A    between atoms: _26  and  _27
REMARK   12  A    between atoms: _26  and  _29
REMARK   13  A    between atoms: _29  and  _30
REMARK   14  A    between atoms: _33  and  _35
REMARK   15  A    between atoms: _35  and  _36
REMARK   16  A    between atoms: _35  and  _38
REMARK   17  A    between atoms: _38  and  _39
REMARK   18  A    between atoms: _39  and  _40
REMARK   19  A    between atoms: _45  and  _47
REMARK   20  A    between atoms: _47  and  _48
REMARK   21  A    between atoms: _47  and  _50
REMARK   22  A    between atoms: _50  and  _51
REMARK   23  A    between atoms: _56  and  _57
REMARK   24  A    between atoms: _59  and  _61
REMARK   25  A    between atoms: _61  and  _62
REMARK   26  A    between atoms: _61  and  _64
REMARK   27  A    between atoms: _67  and  _69
REMARK   28  A    between atoms: _69  and  _70
REMARK   29  A    between atoms: _69  and  _72
REMARK   30  A    between atoms: _75  and  _77
REMARK   31  A    between atoms: _77  and  _78
REMARK   32  A    between atoms: _77  and  _80
REMARK   33  A    between atoms: _80  and  _81
REMARK   34  A    between atoms: _87  and  _89
REMARK   35  A    between atoms: _89  and  _90
REMARK   36  A    between atoms: _89  and  _92
REMARK   37  A    between atoms: _92  and  _93
REMARK   38  A    between atoms: _96  and  _98
REMARK   39  A    between atoms: _98  and  _99
REMARK   40  A    between atoms: _98  and  _101
REMARK   41  A    between atoms: _101  and  _102
REMARK   42  A    between atoms: _105  and  _107
REMARK   43  A    between atoms: _107  and  _108
REMARK   44  A    between atoms: _110  and  _112
REMARK   45  A    between atoms: _112  and  _113
REMARK   46  A    between atoms: _112  and  _115
REMARK   47  A    between atoms: _115  and  _116
REMARK   48  A    between atoms: _118  and  _120
REMARK   49  A    between atoms: _120  and  _121
REMARK   50  A    between atoms: _120  and  _123
REMARK   51  A    between atoms: _123  and  _124
REMARK   52  A    between atoms: _126  and  _128
REMARK   53  A    between atoms: _128  and  _129
REMARK   54  A    between atoms: _128  and  _131
REMARK   55  A    between atoms: _131  and  _132
REMARK   56  A    between atoms: _142  and  _144
REMARK   57  A    between atoms: _144  and  _145
REMARK   58  A    between atoms: _144  and  _147
REMARK   59  A    between atoms: _147  and  _148
REMARK   60  A    between atoms: _153  and  _155
REMARK   61  A    between atoms: _155  and  _156
REMARK   62  A    between atoms: _155  and  _158
REMARK   63  A    between atoms: _158  and  _159
REMARK   64  A    between atoms: _162  and  _164
REMARK   65  A    between atoms: _164  and  _165
REMARK   66  A    between atoms: _164  and  _167
REMARK   67  A    between atoms: _167  and  _168
REMARK   68  A    between atoms: _168  and  _169
REMARK   69  A    between atoms: _169  and  _170
REMARK   70  A    between atoms: _179  and  _181
REMARK   71  A    between atoms: _181  and  _182
REMARK   72  A    between atoms: _181  and  _184
REMARK   73  A    between atoms: _184  and  _185
REMARK   74  A    between atoms: _190  and  _191
REMARK   75  A    between atoms: _193  and  _195
REMARK   76  A    between atoms: _195  and  _196
REMARK   77  A    between atoms: _195  and  _198
REMARK   78  A    between atoms: _198  and  _199
REMARK   79  A    between atoms: _201  and  _203
REMARK   80  A    between atoms: _203  and  _204
REMARK   81  A    between atoms: _203  and  _206
REMARK   82  A    between atoms: _206  and  _207
REMARK   83  A    between atoms: _210  and  _212
REMARK   84  A    between atoms: _212  and  _213
REMARK   85  A    between atoms: _215  and  _217
REMARK   86  A    between atoms: _217  and  _218
REMARK   87  A    between atoms: _217  and  _220
REMARK   88  A    between atoms: _220  and  _221
REMARK   89  A    between atoms: _224  and  _226
REMARK   90  A    between atoms: _226  and  _227
REMARK   91  A    between atoms: _226  and  _229
REMARK   92  A    between atoms: _232  and  _234
REMARK   93  A    between atoms: _234  and  _235
REMARK   94  A    between atoms: _238  and  _240
REMARK   95  A    between atoms: _240  and  _241
REMARK   96  A    between atoms: _240  and  _243
REMARK   97  A    between atoms: _243  and  _244
REMARK   98  A    between atoms: _248  and  _249
REMARK   99  A    between atoms: _254  and  _256
REMARK  100  A    between atoms: _256  and  _257
REMARK  101  A    between atoms: _256  and  _259
REMARK  102  A    between atoms: _259  and  _260
REMARK  103  A    between atoms: _266  and  _268
REMARK  104  A    between atoms: _268  and  _269
REMARK  105  A    between atoms: _268  and  _271
REMARK  106  A    between atoms: _271  and  _272
REMARK  107  A    between atoms: _272  and  _273
REMARK  108  A    between atoms: _275  and  _277
REMARK  109  A    between atoms: _277  and  _278
REMARK  110  A    between atoms: _277  and  _280
REMARK  111  A    between atoms: _280  and  _281
REMARK  112  A    between atoms: _284  and  _286
REMARK  113  A    between atoms: _286  and  _287
REMARK  114  A    between atoms: _290  and  _292
REMARK  115  A    between atoms: _292  and  _293
REMARK  116  A    between atoms: _292  and  _295
REMARK  117  A    between atoms: _295  and  _296
REMARK  118  A    between atoms: _296  and  _297
REMARK  119  A    between atoms: _300  and  _302
REMARK  120  A    between atoms: _302  and  _303
REMARK  121  A    between atoms: _302  and  _305
REMARK  122  A    between atoms: _305  and  _306
REMARK  123  A    between atoms: _312  and  _314
REMARK  124  A    between atoms: _314  and  _315
REMARK  125  A    between atoms: _317  and  _319
REMARK  126  A    between atoms: _319  and  _320
REMARK  127  A    between atoms: _319  and  _322
REMARK  128  A    between atoms: _325  and  _327
REMARK  129  A    between atoms: _327  and  _328
REMARK  130  A    between atoms: _327  and  _330
REMARK  131  A    between atoms: _333  and  _335
REMARK  132  A    between atoms: _335  and  _336
REMARK  133  A    between atoms: _335  and  _338
REMARK  134  A    between atoms: _338  and  _339
REMARK  135  A    between atoms: _339  and  _340
REMARK  136  A    between atoms: _342  and  _344
REMARK  137  A    between atoms: _344  and  _345
REMARK  138  A    between atoms: _344  and  _347
REMARK  139  A    between atoms: _347  and  _348
REMARK  140  A    between atoms: _348  and  _349
REMARK  141  A    between atoms: _354  and  _356
REMARK  142  A    between atoms: _356  and  _357
REMARK  143  A    between atoms: _356  and  _359
REMARK  144  A    between atoms: _362  and  _364
REMARK  145  A    between atoms: _364  and  _365
REMARK  146  A    between atoms: _364  and  _367
REMARK  147  A    between atoms: _367  and  _368
REMARK  148  A    between atoms: _378  and  _380
REMARK  149  A    between atoms: _380  and  _381
REMARK  150  A    between atoms: _380  and  _383
REMARK  151  A    between atoms: _383  and  _384
REMARK  152  A    between atoms: _387  and  _389
REMARK  153  A    between atoms: _389  and  _390
REMARK  154  A    between atoms: _389  and  _392
REMARK  155  A    between atoms: _395  and  _397
REMARK  156  A    between atoms: _397  and  _398
REMARK  157  A    between atoms: _397  and  _400
REMARK  158  A    between atoms: _400  and  _401
REMARK  159  A    between atoms: _404  and  _406
REMARK  160  A    between atoms: _406  and  _407
REMARK  161  A    between atoms: _406  and  _409
REMARK  162  A    between atoms: _409  and  _410
REMARK  163  A    between atoms: _413  and  _415
REMARK  164  A    between atoms: _415  and  _416
REMARK  165  A    between atoms: _418  and  _420
REMARK  166  A    between atoms: _420  and  _421
REMARK  167  A    between atoms: _424  and  _426
REMARK  168  A    between atoms: _426  and  _427
REMARK  169  A    between atoms: _426  and  _429
REMARK  170  A    between atoms: _429  and  _430
REMARK  171  A    between atoms: _432  and  _434
REMARK  172  A    between atoms: _434  and  _435
REMARK  173  A    between atoms: _434  and  _437
REMARK  174  A    between atoms: _437  and  _438
REMARK  175  A    between atoms: _443  and  _444
REMARK  176  A    between atoms: _446  and  _448
REMARK  177  A    between atoms: _448  and  _449
REMARK  178  A    between atoms: _448  and  _451
REMARK  179  A    between atoms: _451  and  _452
REMARK  180  A    between atoms: _455  and  _457
REMARK  181  A    between atoms: _457  and  _458
REMARK  182  A    between atoms: _457  and  _460
REMARK  183  A    between atoms: _460  and  _461
REMARK  184  A    between atoms: _463  and  _465
REMARK  185  A    between atoms: _465  and  _466
REMARK  186  A    between atoms: _468  and  _470
REMARK  187  A    between atoms: _470  and  _471
REMARK  188  A    between atoms: _470  and  _473
REMARK  189  A    between atoms: _473  and  _474
REMARK  190  A    between atoms: _480  and  _482
REMARK  191  A    between atoms: _482  and  _483
REMARK  192  A    between atoms: _482  and  _485
REMARK  193  A    between atoms: _485  and  _486
REMARK  194  A    between atoms: _489  and  _491
REMARK  195  A    between atoms: _491  and  _492
REMARK  196  A    between atoms: _491  and  _494
REMARK  197  A    between atoms: _494  and  _495
REMARK  198  A    between atoms: _501  and  _503
REMARK  199  A    between atoms: _503  and  _504
REMARK  200  A    between atoms: _503  and  _506
REMARK  201  A    between atoms: _506  and  _507
REMARK  202  A    between atoms: _510  and  _512
REMARK  203  A    between atoms: _512  and  _513
REMARK  204  A    between atoms: _512  and  _515
REMARK  205  A    between atoms: _515  and  _516
REMARK  206  A    between atoms: _519  and  _521
REMARK  207  A    between atoms: _521  and  _522
REMARK  208  A    between atoms: _525  and  _527
REMARK  209  A    between atoms: _527  and  _528
REMARK  210  A    between atoms: _527  and  _530
REMARK  211  A    between atoms: _530  and  _531
REMARK  212  A    between atoms: _534  and  _536
REMARK  213  A    between atoms: _536  and  _537
REMARK  214  A    between atoms: _536  and  _539
REMARK  215  A    between atoms: _539  and  _540
REMARK  216  A    between atoms: _545  and  _547
REMARK  217  A    between atoms: _547  and  _548
REMARK  218  A    between atoms: _551  and  _553
REMARK  219  A    between atoms: _553  and  _554
REMARK  220  A    between atoms: _553  and  _556
REMARK  221  A    between atoms: _556  and  _557
REMARK  222  A    between atoms: _557  and  _558
REMARK  223  A    between atoms: _560  and  _562
REMARK  224  A    between atoms: _562  and  _563
REMARK  225  A    between atoms: _562  and  _565
REMARK  226  A    between atoms: _565  and  _566
REMARK  227  A    between atoms: _569  and  _571
REMARK  228  A    between atoms: _571  and  _572
REMARK  229  A    between atoms: _571  and  _574
REMARK  230  A    between atoms: _574  and  _575
REMARK  231  A    between atoms: _579  and  _580
REMARK  232  A    between atoms: _585  and  _587
REMARK  233  A    between atoms: _587  and  _588
REMARK  234  A    between atoms: _587  and  _590
REMARK  235  A    between atoms: _590  and  _591
REMARK  236  A    between atoms: _594  and  _596
REMARK  237  A    between atoms: _596  and  _597
REMARK  238  A    between atoms: _599  and  _601
REMARK  239  A    between atoms: _601  and  _602
REMARK  240  A    between atoms: _601  and  _604
REMARK  241  A    between atoms: _604  and  _605
REMARK  242  A    between atoms: _608  and  _610
REMARK  243  A    between atoms: _610  and  _611
REMARK  244  A    between atoms: _610  and  _613
REMARK  245  A    between atoms: _613  and  _614
REMARK  246  A    between atoms: _624  and  _626
REMARK  247  A    between atoms: _626  and  _627
REMARK  248  A    between atoms: _630  and  _632
REMARK  249  A    between atoms: _632  and  _633
REMARK  250  A    between atoms: _632  and  _635
REMARK  251  A    between atoms: _635  and  _636
REMARK  252  A    between atoms: _639  and  _641
REMARK  253  A    between atoms: _641  and  _642
REMARK  254  A    between atoms: _644  and  _646
REMARK  255  A    between atoms: _646  and  _647
REMARK                            x       y       z     vdW  Elec       q    Type
REMARK                         _______ _______ _______ _____ _____    ______ ____
ROOT
ATOM      1  O   HOH     1       2.191  -2.216 -12.302  0.00  0.00    +0.000 OA
ENDROOT
TORSDOF 0
