REMARK  Name = ../refined-set-2016/3dx2/3dx2_pocket.pdb
REMARK  151 active torsions:
REMARK  status: ('A' for Active; 'I' for Inactive)
REMARK    1  A    between atoms: _1  and  _3
REMARK    2  A    between atoms: _14  and  _17
REMARK    3  A    between atoms: _17  and  _18
REMARK    4  A    between atoms: _25  and  _26
REMARK    5  A    between atoms: _33  and  _34
REMARK    6  A    between atoms: _39  and  _41
REMARK    7  A    between atoms: _41  and  _42
REMARK    8  A    between atoms: _44  and  _46
REMARK    9  A    between atoms: _46  and  _47
REMARK   10  A    between atoms: _46  and  _49
REMARK   11  A    between atoms: _49  and  _50
REMARK   12  A    between atoms: _60  and  _62
REMARK   13  A    between atoms: _62  and  _63
REMARK   14  A    between atoms: _62  and  _65
REMARK   15  A    between atoms: _65  and  _66
REMARK   16  A    between atoms: _69  and  _71
REMARK   17  A    between atoms: _71  and  _72
REMARK   18  A    between atoms: _71  and  _74
REMARK   19  A    between atoms: _74  and  _75
REMARK   20  A    between atoms: _80  and  _81
REMARK   21  A    between atoms: _83  and  _85
REMARK   22  A    between atoms: _85  and  _86
REMARK   23  A    between atoms: _85  and  _88
REMARK   24  A    between atoms: _88  and  _89
REMARK   25  A    between atoms: _89  and  _90
REMARK   26  A    between atoms: _93  and  _95
REMARK   27  A    between atoms: _95  and  _96
REMARK   28  A    between atoms: _95  and  _98
REMARK   29  A    between atoms: _98  and  _99
REMARK   30  A    between atoms: _99  and  _100
REMARK   31  A    between atoms: _102  and  _104
REMARK   32  A    between atoms: _104  and  _105
REMARK   33  A    between atoms: _104  and  _107
REMARK   34  A    between atoms: _107  and  _108
REMARK   35  A    between atoms: _111  and  _113
REMARK   36  A    between atoms: _113  and  _114
REMARK   37  A    between atoms: _113  and  _116
REMARK   38  A    between atoms: _116  and  _117
REMARK   39  A    between atoms: _117  and  _119
REMARK   40  A    between atoms: _119  and  ZN_409
REMARK   41  A    between atoms: _121  and  _122
REMARK   42  A    between atoms: _127  and  _129
REMARK   43  A    between atoms: _129  and  _130
REMARK   44  A    between atoms: _129  and  _132
REMARK   45  A    between atoms: _132  and  _133
REMARK   46  A    between atoms: _139  and  _141
REMARK   47  A    between atoms: _141  and  _142
REMARK   48  A    between atoms: _141  and  _144
REMARK   49  A    between atoms: _144  and  _145
REMARK   50  A    between atoms: _145  and  _146
REMARK   51  A    between atoms: _146  and  _147
REMARK   52  A    between atoms: _156  and  _158
REMARK   53  A    between atoms: _158  and  _159
REMARK   54  A    between atoms: _158  and  _161
REMARK   55  A    between atoms: _161  and  _162
REMARK   56  A    between atoms: _167  and  _168
REMARK   57  A    between atoms: _170  and  _172
REMARK   58  A    between atoms: _172  and  _173
REMARK   59  A    between atoms: _172  and  _175
REMARK   60  A    between atoms: _175  and  _176
REMARK   61  A    between atoms: _178  and  _180
REMARK   62  A    between atoms: _180  and  _181
REMARK   63  A    between atoms: _180  and  _183
REMARK   64  A    between atoms: _183  and  _184
REMARK   65  A    between atoms: _189  and  _190
REMARK   66  A    between atoms: _192  and  _194
REMARK   67  A    between atoms: _194  and  _195
REMARK   68  A    between atoms: _194  and  _197
REMARK   69  A    between atoms: _197  and  _198
REMARK   70  A    between atoms: _201  and  _203
REMARK   71  A    between atoms: _203  and  _204
REMARK   72  A    between atoms: _203  and  _206
REMARK   73  A    between atoms: _206  and  _207
REMARK   74  A    between atoms: _210  and  _212
REMARK   75  A    between atoms: _212  and  _213
REMARK   76  A    between atoms: _212  and  _215
REMARK   77  A    between atoms: _215  and  _216
REMARK   78  A    between atoms: _219  and  _221
REMARK   79  A    between atoms: _221  and  _222
REMARK   80  A    between atoms: _221  and  _224
REMARK   81  A    between atoms: _224  and  _225
REMARK   82  A    between atoms: _231  and  _233
REMARK   83  A    between atoms: _233  and  _234
REMARK   84  A    between atoms: _233  and  _236
REMARK   85  A    between atoms: _236  and  _237
REMARK   86  A    between atoms: _242  and  _243
REMARK   87  A    between atoms: _245  and  _247
REMARK   88  A    between atoms: _247  and  _248
REMARK   89  A    between atoms: _247  and  _250
REMARK   90  A    between atoms: _250  and  _251
REMARK   91  A    between atoms: _254  and  _256
REMARK   92  A    between atoms: _256  and  _257
REMARK   93  A    between atoms: _256  and  _259
REMARK   94  A    between atoms: _259  and  _260
REMARK   95  A    between atoms: _270  and  _272
REMARK   96  A    between atoms: _272  and  _273
REMARK   97  A    between atoms: _272  and  _275
REMARK   98  A    between atoms: _275  and  _276
REMARK   99  A    between atoms: _281  and  _283
REMARK  100  A    between atoms: _283  and  _284
REMARK  101  A    between atoms: _283  and  _286
REMARK  102  A    between atoms: _286  and  _287
REMARK  103  A    between atoms: _291  and  ZN_409
REMARK  104  A    between atoms: _292  and  _294
REMARK  105  A    between atoms: _294  and  _295
REMARK  106  A    between atoms: _294  and  _297
REMARK  107  A    between atoms: _297  and  _298
REMARK  108  A    between atoms: _301  and  _303
REMARK  109  A    between atoms: _303  and  _304
REMARK  110  A    between atoms: _306  and  _308
REMARK  111  A    between atoms: _308  and  _309
REMARK  112  A    between atoms: _308  and  _311
REMARK  113  A    between atoms: _311  and  _312
REMARK  114  A    between atoms: _315  and  _317
REMARK  115  A    between atoms: _317  and  _318
REMARK  116  A    between atoms: _317  and  _320
REMARK  117  A    between atoms: _320  and  _321
REMARK  118  A    between atoms: _324  and  _326
REMARK  119  A    between atoms: _326  and  _327
REMARK  120  A    between atoms: _330  and  _332
REMARK  121  A    between atoms: _332  and  _333
REMARK  122  A    between atoms: _336  and  _338
REMARK  123  A    between atoms: _338  and  _339
REMARK  124  A    between atoms: _338  and  _341
REMARK  125  A    between atoms: _341  and  _342
REMARK  126  A    between atoms: _347  and  _348
REMARK  127  A    between atoms: _350  and  _352
REMARK  128  A    between atoms: _352  and  _353
REMARK  129  A    between atoms: _352  and  _355
REMARK  130  A    between atoms: _355  and  _356
REMARK  131  A    between atoms: _359  and  _361
REMARK  132  A    between atoms: _361  and  _362
REMARK  133  A    between atoms: _361  and  _364
REMARK  134  A    between atoms: _364  and  _365
REMARK  135  A    between atoms: _368  and  _370
REMARK  136  A    between atoms: _370  and  _371
REMARK  137  A    between atoms: _370  and  _373
REMARK  138  A    between atoms: _373  and  _374
REMARK  139  A    between atoms: _374  and  _375
REMARK  140  A    between atoms: _378  and  _380
REMARK  141  A    between atoms: _380  and  _381
REMARK  142  A    between atoms: _380  and  _383
REMARK  143  A    between atoms: _383  and  _384
REMARK  144  A    between atoms: _384  and  _385
REMARK  145  A    between atoms: _385  and  _386
REMARK  146  A    between atoms: _395  and  _397
REMARK  147  A    between atoms: _397  and  _398
REMARK  148  A    between atoms: _400  and  _402
REMARK  149  A    between atoms: _402  and  _403
REMARK  150  A    between atoms: _402  and  _405
REMARK  151  A    between atoms: _405  and  _406
REMARK                            x       y       z     vdW  Elec       q    Type
REMARK                         _______ _______ _______ _____ _____    ______ ____
ROOT
ATOM      1  C   UNK A   1      36.654  61.027  13.552  0.00  0.00    +0.000 C 
ATOM      2  C   UNK A   1      37.345  62.407  13.481  0.00  0.00    +0.000 C 
ATOM      3  O   UNK A   1      36.797  63.399  13.970  0.00  0.00    +0.000 OA
ATOM      4  N   UNK A   2      38.527  62.479  12.870  0.00  0.00    +0.000 N 
ATOM      5  C   UNK A   2      39.304  63.718  12.856  0.00  0.00    +0.000 C 
ATOM      6  C   UNK A   2      39.472  64.209  11.428  0.00  0.00    +0.000 C 
ATOM      7  N   UNK A   3      38.730  65.228  11.058  0.00  0.00    +0.000 N 
ATOM      8  H   UNK A   3      38.067  65.651  11.739  0.00  0.00    +0.000 HD
ATOM      9  C   UNK A   3      38.820  65.780   9.699  0.00  0.00    +0.000 C 
ATOM     10  C   UNK A   3      37.631  66.689   9.482  0.00  0.00    +0.000 C 
ATOM     11  C   UNK A   3      36.359  65.922   9.527  0.00  0.00    +0.000 C 
ATOM     12  O   UNK A   3      35.596  66.143  10.520  0.00  0.00    +0.000 OA
ATOM     13  O   UNK A   3      36.151  65.057   8.630  0.00  0.00    +0.000 OA
ATOM     14 ZN   UNK A   1      34.406  63.848   8.178  0.00  0.00    +0.000 Zn
ATOM     15  N   UNK A   1      34.994  62.377   9.505  0.00  0.00    +0.000 N 
ATOM     16  C   UNK A   1      34.733  62.504  10.850  0.00  0.00    +0.000 A 
ATOM     17  C   UNK A   1      35.248  61.418  11.474  0.00  0.00    +0.000 A 
ATOM     18  N   UNK A   1      35.841  60.650  10.488  0.00  0.00    +0.000 NA
ATOM     19  C   UNK A   1      35.665  61.254   9.310  0.00  0.00    +0.000 A 
ATOM     20  O   UNK A   2      40.280  63.682  10.672  0.00  0.00    +0.000 OA
ATOM     21  H   UNK A   2      38.905  61.636  12.393  0.00  0.00    +0.000 HD
ATOM     22  C   UNK A   1      35.257  61.050  12.931  0.00  0.00    +0.000 C 
ENDROOT
BRANCH   9  23
ATOM     23  C   UNK A   3      40.057  66.635   9.508  0.00  0.00    +0.000 C 
ATOM     24  O   UNK A   3      40.255  67.570  10.287  0.00  0.00    +0.000 OA
ATOM     25  N   GLY A   4      40.923  66.299   8.536  0.00  0.00    +0.000 N 
ATOM     26  CA  GLY A   4      42.081  67.147   8.196  0.00  0.00    +0.000 C 
ATOM     27  CB  GLY A   4      42.963  66.203   7.347  0.00  0.00    +0.000 C 
ATOM     28  CG  GLY A   4      42.447  64.819   7.591  0.00  0.00    +0.000 C 
ATOM     29  CD  GLY A   4      40.960  65.013   7.809  0.00  0.00    +0.000 C 
BRANCH  26  30
ATOM     30  C   GLY A   4      41.649  68.425   7.439  0.00  0.00    +0.000 C 
ATOM     31  N   GLY A   5      40.910  69.267   8.137  0.00  0.00    +0.000 N 
ATOM     32  H   GLY A   5      40.755  69.058   9.144  0.00  0.00    +0.000 HD
ATOM     33  O   GLY A   4      41.979  68.623   6.276  0.00  0.00    +0.000 OA
BRANCH  31  34
ATOM     34  CA  GLY A   5      40.296  70.472   7.588  0.00  0.00    +0.000 C 
BRANCH  34  35
ATOM     35  C   GLY A   5      38.808  70.241   7.387  0.00  0.00    +0.000 C 
ATOM     36  N   TRP A   6      37.995  71.198   7.838  0.00  0.00    +0.000 N 
ATOM     37  H   TRP A   6      38.398  71.949   8.434  0.00  0.00    +0.000 HD
ATOM     38  O   GLY A   5      38.401  69.202   6.843  0.00  0.00    +0.000 OA
BRANCH  36  39
ATOM     39  CA  TRP A   6      36.562  71.243   7.535  0.00  0.00    +0.000 C 
BRANCH  39  40
ATOM     40  C   TRP A   6      36.044  72.616   7.967  0.00  0.00    +0.000 C 
ATOM     41  N   ILE A   7      35.666  72.747   9.239  0.00  0.00    +0.000 N 
ATOM     42  H   ILE A   7      35.635  71.902   9.845  0.00  0.00    +0.000 HD
ATOM     43  O   TRP A   6      36.044  73.536   7.165  0.00  0.00    +0.000 OA
BRANCH  41  44
ATOM     44  CA  ILE A   7      35.291  74.049   9.813  0.00  0.00    +0.000 C 
BRANCH  44  45
ATOM     45  C   ILE A   7      36.491  74.818  10.309  0.00  0.00    +0.000 C 
ATOM     46  O   ILE A   7      36.393  76.026  10.514  0.00  0.00    +0.000 OA
ENDBRANCH  44  45
BRANCH  44  47
ATOM     47  CB  ILE A   7      34.381  73.896  11.094  0.00  0.00    +0.000 C 
ATOM     48  CG2 ILE A   7      34.233  75.220  11.873  0.00  0.00    +0.000 C 
BRANCH  47  49
ATOM     49  CG1 ILE A   7      33.079  73.203  10.812  0.00  0.00    +0.000 C 
ATOM     50  CD1 ILE A   7      32.508  73.575   9.600  0.00  0.00    +0.000 C 
ENDBRANCH  47  49
ENDBRANCH  44  47
ENDBRANCH  41  44
ENDBRANCH  39  40
BRANCH  39  51
ATOM     51  CB  TRP A   6      35.765  70.082   8.167  0.00  0.00    +0.000 C 
BRANCH  51  52
ATOM     52  CG  TRP A   6      34.297  70.223   7.859  0.00  0.00    +0.000 A 
ATOM     53  CD2 TRP A   6      33.202  70.037   8.761  0.00  0.00    +0.000 A 
ATOM     54  CE3 TRP A   6      33.104  69.663  10.110  0.00  0.00    +0.000 A 
ATOM     55  CZ3 TRP A   6      31.807  69.552  10.676  0.00  0.00    +0.000 A 
ATOM     56  CH2 TRP A   6      30.663  69.823   9.912  0.00  0.00    +0.000 A 
ATOM     57  CZ2 TRP A   6      30.736  70.183   8.597  0.00  0.00    +0.000 A 
ATOM     58  CE2 TRP A   6      32.011  70.314   8.033  0.00  0.00    +0.000 A 
ATOM     59  NE1 TRP A   6      32.371  70.641   6.753  0.00  0.00    +0.000 N 
ATOM     60  HE1 TRP A   6      31.717  70.892   5.984  0.00  0.00    +0.000 HD
ATOM     61  CD1 TRP A   6      33.747  70.582   6.653  0.00  0.00    +0.000 A 
ENDBRANCH  51  52
ENDBRANCH  39  51
ENDBRANCH  36  39
ENDBRANCH  34  35
ENDBRANCH  31  34
ENDBRANCH  26  30
ENDBRANCH   9  23
BRANCH  14  62
ATOM     62  N   UNK A   1      35.304  63.175   6.350  0.00  0.00    +0.000 N 
ATOM     63  C   UNK A   1      36.358  62.410   6.128  0.00  0.00    +0.000 A 
ATOM     64  N   UNK A   1      36.511  62.268   4.816  0.00  0.00    +0.000 NA
ATOM     65  C   UNK A   1      35.539  63.006   4.163  0.00  0.00    +0.000 A 
ATOM     66  C   UNK A   1      34.782  63.578   5.141  0.00  0.00    +0.000 A 
BRANCH  65  67
ATOM     67  C   UNK A   1      35.451  63.106   2.666  0.00  0.00    +0.000 C 
BRANCH  67  68
ATOM     68  C   UNK A   1      36.296  64.269   2.087  0.00  0.00    +0.000 C 
BRANCH  68  69
ATOM     69  N   UNK A   1      37.703  64.137   2.447  0.00  0.00    +0.000 N 
ATOM     70  H   UNK A   1      37.956  63.560   3.274  0.00  0.00    +0.000 HD
ATOM     71  C   UNK A   1      38.674  64.726   1.758  0.00  0.00    +0.000 C 
ATOM     72  O   UNK A   1      38.449  65.485   0.816  0.00  0.00    +0.000 OA
BRANCH  71  73
ATOM     73  C   UNK A   1      40.094  64.442   2.242  0.00  0.00    +0.000 C 
BRANCH  73  74
ATOM     74  N   UNK A   1      41.057  64.499   1.138  0.00  0.00    +0.000 NA
ATOM     75  H   UNK A   1      41.939  65.035   1.262  0.00  0.00    +0.000 HD
ENDBRANCH  73  74
BRANCH  73  76
ATOM     76  C   UNK A   1      40.533  65.461   3.309  0.00  0.00    +0.000 C 
BRANCH  76  77
ATOM     77  C   UNK A   1      39.518  65.678   4.377  0.00  0.00    +0.000 A 
ATOM     78  N   UNK A   1      38.914  64.638   5.060  0.00  0.00    +0.000 NA
ATOM     79  C   UNK A   1      38.039  65.141   5.914  0.00  0.00    +0.000 A 
ATOM     80  N   UNK A   1      38.081  66.462   5.838  0.00  0.00    +0.000 NA
ATOM     81  C   UNK A   1      39.016  66.823   4.905  0.00  0.00    +0.000 A 
ENDBRANCH  76  77
ENDBRANCH  73  76
ENDBRANCH  71  73
ENDBRANCH  68  69
BRANCH  68  82
ATOM     82  C   UNK A   1      35.686  65.635   2.427  0.00  0.00    +0.000 C 
ATOM     83  N   UNK A   3      36.505  66.597   2.896  0.00  0.00    +0.000 N 
ATOM     84  H   UNK A   3      37.432  66.334   3.288  0.00  0.00    +0.000 HD
ATOM     85  O   UNK A   1      34.479  65.802   2.191  0.00  0.00    +0.000 OA
BRANCH  83  86
ATOM     86  C   UNK A   3      36.107  68.022   2.862  0.00  0.00    +0.000 C 
BRANCH  86  87
ATOM     87  C   UNK A   3      37.074  68.874   2.051  0.00  0.00    +0.000 C 
ATOM     88  O   UNK A   3      36.948  70.098   2.084  0.00  0.00    +0.000 OA
ATOM     89  N   GLY A   4      38.003  68.232   1.330  0.00  0.00    +0.000 N 
ATOM     90  H   GLY A   4      38.044  67.193   1.349  0.00  0.00    +0.000 HD
BRANCH  89  91
ATOM     91  CA  GLY A   4      38.958  68.978   0.518  0.00  0.00    +0.000 C 
BRANCH  91  92
ATOM     92  C   GLY A   4      38.414  69.073  -0.889  0.00  0.00    +0.000 C 
ATOM     93  O   GLY A   4      37.660  70.004  -1.215  0.00  0.00    +0.000 OA
ENDBRANCH  91  92
ENDBRANCH  89  91
ENDBRANCH  86  87
BRANCH  86  94
ATOM     94  C   UNK A   3      35.929  68.609   4.273  0.00  0.00    +0.000 C 
BRANCH  94  95
ATOM     95  C   UNK A   3      34.916  67.830   5.079  0.00  0.00    +0.000 C 
ATOM     96  O   UNK A   3      35.335  67.177   6.050  0.00  0.00    +0.000 OA
ATOM     97  O   UNK A   3      33.732  67.875   4.687  0.00  0.00    +0.000 OA
ENDBRANCH  94  95
ENDBRANCH  86  94
ENDBRANCH  83  86
ENDBRANCH  68  82
ENDBRANCH  67  68
ENDBRANCH  65  67
ENDBRANCH  14  62
BRANCH   1  98
ATOM     98  N   UNK A   1      36.578  60.602  14.966  0.00  0.00    +0.000 NA
ATOM     99  H   UNK A   1      35.694  60.735  15.498  0.00  0.00    +0.000 HD
ENDBRANCH   1  98
BRANCH   5 100
ATOM    100  C   UNK A   2      40.685  63.517  13.476  0.00  0.00    +0.000 C 
BRANCH 100 101
ATOM    101  C   UNK A   2      40.643  63.465  14.994  0.00  0.00    +0.000 C 
ATOM    102  O   UNK A   2      41.208  64.315  15.702  0.00  0.00    +0.000 OA
ATOM    103  N   UNK A   2      39.972  62.455  15.506  0.00  0.00    +0.000 N 
ATOM    104  H   UNK A   2      39.901  62.348  16.538  0.00  0.00    +0.000 HD
ATOM    105  H   UNK A   2      39.513  61.764  14.879  0.00  0.00    +0.000 HD
ENDBRANCH 100 101
ENDBRANCH   5 100
BRANCH  14 106
ATOM    106  O   UNK A   1      32.480  63.084   7.925  0.00  0.00    +0.000 OA
BRANCH 106 107
ATOM    107  C   UNK A   1      31.963  61.977   7.598  0.00  0.00    +0.000 C 
ATOM    108  O   UNK A   1      30.716  61.775   7.586  0.00  0.00    +0.000 OA
BRANCH 107 109
ATOM    109  C   UNK A   1      32.916  60.807   7.252  0.00  0.00    +0.000 C 
BRANCH 109 110
ATOM    110  C   UNK A   1      32.246  59.694   6.417  0.00  0.00    +0.000 C 
BRANCH 110 111
ATOM    111  C   UNK A   1      32.189  60.100   4.931  0.00  0.00    +0.000 C 
ATOM    112  O   UNK A   1      31.443  61.025   4.632  0.00  0.00    +0.000 OA
ATOM    113  N   UNK A   3      32.939  59.440   4.012  0.00  0.00    +0.000 N 
ATOM    114  C   UNK A   3      33.965  58.394   4.105  0.00  0.00    +0.000 C 
ATOM    115  C   UNK A   3      34.691  58.505   2.775  0.00  0.00    +0.000 C 
ATOM    116  C   UNK A   3      33.647  58.959   1.796  0.00  0.00    +0.000 C 
ATOM    117  C   UNK A   3      32.772  59.915   2.615  0.00  0.00    +0.000 C 
BRANCH 117 118
ATOM    118  C   UNK A   3      31.302  59.833   2.152  0.00  0.00    +0.000 C 
ATOM    119  O   UNK A   3      30.562  58.948   2.573  0.00  0.00    +0.000 OA
ATOM    120  N   GLY A   4      30.876  60.736   1.268  0.00  0.00    +0.000 N 
ATOM    121  H   GLY A   4      31.564  61.306   0.735  0.00  0.00    +0.000 HD
BRANCH 120 122
ATOM    122  CA  GLY A   4      29.429  60.928   1.044  0.00  0.00    +0.000 C 
BRANCH 122 123
ATOM    123  C   GLY A   4      28.970  60.024  -0.115  0.00  0.00    +0.000 C 
ATOM    124  O   GLY A   4      28.755  60.455  -1.249  0.00  0.00    +0.000 OA
ENDBRANCH 122 123
BRANCH 122 125
ATOM    125  CB  GLY A   4      29.111  62.408   0.781  0.00  0.00    +0.000 C 
BRANCH 125 126
ATOM    126  CG  GLY A   4      29.938  63.377   1.608  0.00  0.00    +0.000 A 
ATOM    127  CD2 GLY A   4      30.114  63.176   2.979  0.00  0.00    +0.000 A 
ATOM    128  CE2 GLY A   4      30.899  64.023   3.728  0.00  0.00    +0.000 A 
ATOM    129  CZ  GLY A   4      31.526  65.121   3.104  0.00  0.00    +0.000 A 
ATOM    130  CE1 GLY A   4      31.323  65.344   1.728  0.00  0.00    +0.000 A 
ATOM    131  CD1 GLY A   4      30.562  64.466   0.991  0.00  0.00    +0.000 A 
ENDBRANCH 125 126
ENDBRANCH 122 125
ENDBRANCH 120 122
ENDBRANCH 117 118
ENDBRANCH 110 111
BRANCH 110 132
ATOM    132  N   UNK A   1      32.788  58.384   6.776  0.00  0.00    +0.000 N 
ATOM    133  C   UNK A   1      32.019  57.475   7.394  0.00  0.00    +0.000 C 
ATOM    134  O   UNK A   1      30.821  57.641   7.605  0.00  0.00    +0.000 OA
ATOM    135  H   UNK A   1      33.777  58.155   6.550  0.00  0.00    +0.000 HD
BRANCH 133 136
ATOM    136  C   UNK A   1      32.712  56.215   7.896  0.00  0.00    +0.000 C 
BRANCH 136 137
ATOM    137  N   UNK A   1      34.016  55.946   7.288  0.00  0.00    +0.000 NA
ATOM    138  H   UNK A   1      34.875  56.374   7.689  0.00  0.00    +0.000 HD
ENDBRANCH 136 137
BRANCH 136 139
ATOM    139  C   UNK A   1      32.809  56.221   9.434  0.00  0.00    +0.000 C 
ATOM    140  C   UNK A   1      33.037  54.806   9.930  0.00  0.00    +0.000 C 
BRANCH 139 141
ATOM    141  C   UNK A   1      33.911  57.176   9.928  0.00  0.00    +0.000 C 
ATOM    142  C   UNK A   1      33.847  57.458  11.428  0.00  0.00    +0.000 C 
ENDBRANCH 139 141
ENDBRANCH 136 139
ENDBRANCH 133 136
ENDBRANCH 110 132
ENDBRANCH 109 110
ENDBRANCH 107 109
ENDBRANCH 106 107
ENDBRANCH  14 106
TORSDOF 45
REMARK  Name = ../refined-set-2016/3dx2/3dx2_pocket.pdb
REMARK  151 active torsions:
REMARK  status: ('A' for Active; 'I' for Inactive)
REMARK    1  A    between atoms: _1  and  _3
REMARK    2  A    between atoms: _14  and  _17
REMARK    3  A    between atoms: _17  and  _18
REMARK    4  A    between atoms: _25  and  _26
REMARK    5  A    between atoms: _33  and  _34
REMARK    6  A    between atoms: _39  and  _41
REMARK    7  A    between atoms: _41  and  _42
REMARK    8  A    between atoms: _44  and  _46
REMARK    9  A    between atoms: _46  and  _47
REMARK   10  A    between atoms: _46  and  _49
REMARK   11  A    between atoms: _49  and  _50
REMARK   12  A    between atoms: _60  and  _62
REMARK   13  A    between atoms: _62  and  _63
REMARK   14  A    between atoms: _62  and  _65
REMARK   15  A    between atoms: _65  and  _66
REMARK   16  A    between atoms: _69  and  _71
REMARK   17  A    between atoms: _71  and  _72
REMARK   18  A    between atoms: _71  and  _74
REMARK   19  A    between atoms: _74  and  _75
REMARK   20  A    between atoms: _80  and  _81
REMARK   21  A    between atoms: _83  and  _85
REMARK   22  A    between atoms: _85  and  _86
REMARK   23  A    between atoms: _85  and  _88
REMARK   24  A    between atoms: _88  and  _89
REMARK   25  A    between atoms: _89  and  _90
REMARK   26  A    between atoms: _93  and  _95
REMARK   27  A    between atoms: _95  and  _96
REMARK   28  A    between atoms: _95  and  _98
REMARK   29  A    between atoms: _98  and  _99
REMARK   30  A    between atoms: _99  and  _100
REMARK   31  A    between atoms: _102  and  _104
REMARK   32  A    between atoms: _104  and  _105
REMARK   33  A    between atoms: _104  and  _107
REMARK   34  A    between atoms: _107  and  _108
REMARK   35  A    between atoms: _111  and  _113
REMARK   36  A    between atoms: _113  and  _114
REMARK   37  A    between atoms: _113  and  _116
REMARK   38  A    between atoms: _116  and  _117
REMARK   39  A    between atoms: _117  and  _119
REMARK   40  A    between atoms: _119  and  ZN_409
REMARK   41  A    between atoms: _121  and  _122
REMARK   42  A    between atoms: _127  and  _129
REMARK   43  A    between atoms: _129  and  _130
REMARK   44  A    between atoms: _129  and  _132
REMARK   45  A    between atoms: _132  and  _133
REMARK   46  A    between atoms: _139  and  _141
REMARK   47  A    between atoms: _141  and  _142
REMARK   48  A    between atoms: _141  and  _144
REMARK   49  A    between atoms: _144  and  _145
REMARK   50  A    between atoms: _145  and  _146
REMARK   51  A    between atoms: _146  and  _147
REMARK   52  A    between atoms: _156  and  _158
REMARK   53  A    between atoms: _158  and  _159
REMARK   54  A    between atoms: _158  and  _161
REMARK   55  A    between atoms: _161  and  _162
REMARK   56  A    between atoms: _167  and  _168
REMARK   57  A    between atoms: _170  and  _172
REMARK   58  A    between atoms: _172  and  _173
REMARK   59  A    between atoms: _172  and  _175
REMARK   60  A    between atoms: _175  and  _176
REMARK   61  A    between atoms: _178  and  _180
REMARK   62  A    between atoms: _180  and  _181
REMARK   63  A    between atoms: _180  and  _183
REMARK   64  A    between atoms: _183  and  _184
REMARK   65  A    between atoms: _189  and  _190
REMARK   66  A    between atoms: _192  and  _194
REMARK   67  A    between atoms: _194  and  _195
REMARK   68  A    between atoms: _194  and  _197
REMARK   69  A    between atoms: _197  and  _198
REMARK   70  A    between atoms: _201  and  _203
REMARK   71  A    between atoms: _203  and  _204
REMARK   72  A    between atoms: _203  and  _206
REMARK   73  A    between atoms: _206  and  _207
REMARK   74  A    between atoms: _210  and  _212
REMARK   75  A    between atoms: _212  and  _213
REMARK   76  A    between atoms: _212  and  _215
REMARK   77  A    between atoms: _215  and  _216
REMARK   78  A    between atoms: _219  and  _221
REMARK   79  A    between atoms: _221  and  _222
REMARK   80  A    between atoms: _221  and  _224
REMARK   81  A    between atoms: _224  and  _225
REMARK   82  A    between atoms: _231  and  _233
REMARK   83  A    between atoms: _233  and  _234
REMARK   84  A    between atoms: _233  and  _236
REMARK   85  A    between atoms: _236  and  _237
REMARK   86  A    between atoms: _242  and  _243
REMARK   87  A    between atoms: _245  and  _247
REMARK   88  A    between atoms: _247  and  _248
REMARK   89  A    between atoms: _247  and  _250
REMARK   90  A    between atoms: _250  and  _251
REMARK   91  A    between atoms: _254  and  _256
REMARK   92  A    between atoms: _256  and  _257
REMARK   93  A    between atoms: _256  and  _259
REMARK   94  A    between atoms: _259  and  _260
REMARK   95  A    between atoms: _270  and  _272
REMARK   96  A    between atoms: _272  and  _273
REMARK   97  A    between atoms: _272  and  _275
REMARK   98  A    between atoms: _275  and  _276
REMARK   99  A    between atoms: _281  and  _283
REMARK  100  A    between atoms: _283  and  _284
REMARK  101  A    between atoms: _283  and  _286
REMARK  102  A    between atoms: _286  and  _287
REMARK  103  A    between atoms: _291  and  ZN_409
REMARK  104  A    between atoms: _292  and  _294
REMARK  105  A    between atoms: _294  and  _295
REMARK  106  A    between atoms: _294  and  _297
REMARK  107  A    between atoms: _297  and  _298
REMARK  108  A    between atoms: _301  and  _303
REMARK  109  A    between atoms: _303  and  _304
REMARK  110  A    between atoms: _306  and  _308
REMARK  111  A    between atoms: _308  and  _309
REMARK  112  A    between atoms: _308  and  _311
REMARK  113  A    between atoms: _311  and  _312
REMARK  114  A    between atoms: _315  and  _317
REMARK  115  A    between atoms: _317  and  _318
REMARK  116  A    between atoms: _317  and  _320
REMARK  117  A    between atoms: _320  and  _321
REMARK  118  A    between atoms: _324  and  _326
REMARK  119  A    between atoms: _326  and  _327
REMARK  120  A    between atoms: _330  and  _332
REMARK  121  A    between atoms: _332  and  _333
REMARK  122  A    between atoms: _336  and  _338
REMARK  123  A    between atoms: _338  and  _339
REMARK  124  A    between atoms: _338  and  _341
REMARK  125  A    between atoms: _341  and  _342
REMARK  126  A    between atoms: _347  and  _348
REMARK  127  A    between atoms: _350  and  _352
REMARK  128  A    between atoms: _352  and  _353
REMARK  129  A    between atoms: _352  and  _355
REMARK  130  A    between atoms: _355  and  _356
REMARK  131  A    between atoms: _359  and  _361
REMARK  132  A    between atoms: _361  and  _362
REMARK  133  A    between atoms: _361  and  _364
REMARK  134  A    between atoms: _364  and  _365
REMARK  135  A    between atoms: _368  and  _370
REMARK  136  A    between atoms: _370  and  _371
REMARK  137  A    between atoms: _370  and  _373
REMARK  138  A    between atoms: _373  and  _374
REMARK  139  A    between atoms: _374  and  _375
REMARK  140  A    between atoms: _378  and  _380
REMARK  141  A    between atoms: _380  and  _381
REMARK  142  A    between atoms: _380  and  _383
REMARK  143  A    between atoms: _383  and  _384
REMARK  144  A    between atoms: _384  and  _385
REMARK  145  A    between atoms: _385  and  _386
REMARK  146  A    between atoms: _395  and  _397
REMARK  147  A    between atoms: _397  and  _398
REMARK  148  A    between atoms: _400  and  _402
REMARK  149  A    between atoms: _402  and  _403
REMARK  150  A    between atoms: _402  and  _405
REMARK  151  A    between atoms: _405  and  _406
REMARK                            x       y       z     vdW  Elec       q    Type
REMARK                         _______ _______ _______ _____ _____    ______ ____
ROOT
ATOM      1  CG  TYR A   1      40.158  70.664  13.029  0.00  0.00    -0.020 A 
ATOM      2  CD2 TYR A   1      39.120  70.892  13.946  0.00  0.00    -0.001 A 
ATOM      3  CE2 TYR A   1      37.789  71.002  13.503  0.00  0.00    +0.036 A 
ATOM      4  CZ  TYR A   1      37.510  70.843  12.149  0.00  0.00    +0.134 A 
ATOM      5  CE1 TYR A   1      38.539  70.630  11.250  0.00  0.00    +0.036 A 
ATOM      6  CD1 TYR A   1      39.829  70.536  11.681  0.00  0.00    -0.001 A 
ENDROOT
BRANCH   4   7
ATOM      7  OH  TYR A   1      36.217  70.954  11.695  0.00  0.00    -0.506 OA
ATOM      8  HH  TYR A   1      35.610  71.103  12.463  0.00  0.00    +0.292 HD
ENDBRANCH   4   7
BRANCH   1   9
ATOM      9  CB  TYR A   1      41.575  70.422  13.462  0.00  0.00    +0.051 C 
BRANCH   9  10
ATOM     10  CA  TYR A   1      42.159  71.399  14.456  0.00  0.00    +0.137 C 
BRANCH  10  11
ATOM     11  N   TYR A   1      42.704  72.573  13.764  0.00  0.00    -0.239 NA
ATOM     12  H   TYR A   1      42.691  72.626  12.725  0.00  0.00    +0.142 HD
ENDBRANCH  10  11
BRANCH  10  13
ATOM     13  C   TYR A   1      43.247  70.662  15.207  0.00  0.00    +0.224 C 
ATOM     14  O   TYR A   1      43.004  70.151  16.291  0.00  0.00    -0.287 OA
ENDBRANCH  10  13
ENDBRANCH   9  10
ENDBRANCH   1   9
TORSDOF 5
REMARK  Name = ../refined-set-2016/3dx2/3dx2_pocket.pdb
REMARK  151 active torsions:
REMARK  status: ('A' for Active; 'I' for Inactive)
REMARK    1  A    between atoms: _1  and  _3
REMARK    2  A    between atoms: _14  and  _17
REMARK    3  A    between atoms: _17  and  _18
REMARK    4  A    between atoms: _25  and  _26
REMARK    5  A    between atoms: _33  and  _34
REMARK    6  A    between atoms: _39  and  _41
REMARK    7  A    between atoms: _41  and  _42
REMARK    8  A    between atoms: _44  and  _46
REMARK    9  A    between atoms: _46  and  _47
REMARK   10  A    between atoms: _46  and  _49
REMARK   11  A    between atoms: _49  and  _50
REMARK   12  A    between atoms: _60  and  _62
REMARK   13  A    between atoms: _62  and  _63
REMARK   14  A    between atoms: _62  and  _65
REMARK   15  A    between atoms: _65  and  _66
REMARK   16  A    between atoms: _69  and  _71
REMARK   17  A    between atoms: _71  and  _72
REMARK   18  A    between atoms: _71  and  _74
REMARK   19  A    between atoms: _74  and  _75
REMARK   20  A    between atoms: _80  and  _81
REMARK   21  A    between atoms: _83  and  _85
REMARK   22  A    between atoms: _85  and  _86
REMARK   23  A    between atoms: _85  and  _88
REMARK   24  A    between atoms: _88  and  _89
REMARK   25  A    between atoms: _89  and  _90
REMARK   26  A    between atoms: _93  and  _95
REMARK   27  A    between atoms: _95  and  _96
REMARK   28  A    between atoms: _95  and  _98
REMARK   29  A    between atoms: _98  and  _99
REMARK   30  A    between atoms: _99  and  _100
REMARK   31  A    between atoms: _102  and  _104
REMARK   32  A    between atoms: _104  and  _105
REMARK   33  A    between atoms: _104  and  _107
REMARK   34  A    between atoms: _107  and  _108
REMARK   35  A    between atoms: _111  and  _113
REMARK   36  A    between atoms: _113  and  _114
REMARK   37  A    between atoms: _113  and  _116
REMARK   38  A    between atoms: _116  and  _117
REMARK   39  A    between atoms: _117  and  _119
REMARK   40  A    between atoms: _119  and  ZN_409
REMARK   41  A    between atoms: _121  and  _122
REMARK   42  A    between atoms: _127  and  _129
REMARK   43  A    between atoms: _129  and  _130
REMARK   44  A    between atoms: _129  and  _132
REMARK   45  A    between atoms: _132  and  _133
REMARK   46  A    between atoms: _139  and  _141
REMARK   47  A    between atoms: _141  and  _142
REMARK   48  A    between atoms: _141  and  _144
REMARK   49  A    between atoms: _144  and  _145
REMARK   50  A    between atoms: _145  and  _146
REMARK   51  A    between atoms: _146  and  _147
REMARK   52  A    between atoms: _156  and  _158
REMARK   53  A    between atoms: _158  and  _159
REMARK   54  A    between atoms: _158  and  _161
REMARK   55  A    between atoms: _161  and  _162
REMARK   56  A    between atoms: _167  and  _168
REMARK   57  A    between atoms: _170  and  _172
REMARK   58  A    between atoms: _172  and  _173
REMARK   59  A    between atoms: _172  and  _175
REMARK   60  A    between atoms: _175  and  _176
REMARK   61  A    between atoms: _178  and  _180
REMARK   62  A    between atoms: _180  and  _181
REMARK   63  A    between atoms: _180  and  _183
REMARK   64  A    between atoms: _183  and  _184
REMARK   65  A    between atoms: _189  and  _190
REMARK   66  A    between atoms: _192  and  _194
REMARK   67  A    between atoms: _194  and  _195
REMARK   68  A    between atoms: _194  and  _197
REMARK   69  A    between atoms: _197  and  _198
REMARK   70  A    between atoms: _201  and  _203
REMARK   71  A    between atoms: _203  and  _204
REMARK   72  A    between atoms: _203  and  _206
REMARK   73  A    between atoms: _206  and  _207
REMARK   74  A    between atoms: _210  and  _212
REMARK   75  A    between atoms: _212  and  _213
REMARK   76  A    between atoms: _212  and  _215
REMARK   77  A    between atoms: _215  and  _216
REMARK   78  A    between atoms: _219  and  _221
REMARK   79  A    between atoms: _221  and  _222
REMARK   80  A    between atoms: _221  and  _224
REMARK   81  A    between atoms: _224  and  _225
REMARK   82  A    between atoms: _231  and  _233
REMARK   83  A    between atoms: _233  and  _234
REMARK   84  A    between atoms: _233  and  _236
REMARK   85  A    between atoms: _236  and  _237
REMARK   86  A    between atoms: _242  and  _243
REMARK   87  A    between atoms: _245  and  _247
REMARK   88  A    between atoms: _247  and  _248
REMARK   89  A    between atoms: _247  and  _250
REMARK   90  A    between atoms: _250  and  _251
REMARK   91  A    between atoms: _254  and  _256
REMARK   92  A    between atoms: _256  and  _257
REMARK   93  A    between atoms: _256  and  _259
REMARK   94  A    between atoms: _259  and  _260
REMARK   95  A    between atoms: _270  and  _272
REMARK   96  A    between atoms: _272  and  _273
REMARK   97  A    between atoms: _272  and  _275
REMARK   98  A    between atoms: _275  and  _276
REMARK   99  A    between atoms: _281  and  _283
REMARK  100  A    between atoms: _283  and  _284
REMARK  101  A    between atoms: _283  and  _286
REMARK  102  A    between atoms: _286  and  _287
REMARK  103  A    between atoms: _291  and  ZN_409
REMARK  104  A    between atoms: _292  and  _294
REMARK  105  A    between atoms: _294  and  _295
REMARK  106  A    between atoms: _294  and  _297
REMARK  107  A    between atoms: _297  and  _298
REMARK  108  A    between atoms: _301  and  _303
REMARK  109  A    between atoms: _303  and  _304
REMARK  110  A    between atoms: _306  and  _308
REMARK  111  A    between atoms: _308  and  _309
REMARK  112  A    between atoms: _308  and  _311
REMARK  113  A    between atoms: _311  and  _312
REMARK  114  A    between atoms: _315  and  _317
REMARK  115  A    between atoms: _317  and  _318
REMARK  116  A    between atoms: _317  and  _320
REMARK  117  A    between atoms: _320  and  _321
REMARK  118  A    between atoms: _324  and  _326
REMARK  119  A    between atoms: _326  and  _327
REMARK  120  A    between atoms: _330  and  _332
REMARK  121  A    between atoms: _332  and  _333
REMARK  122  A    between atoms: _336  and  _338
REMARK  123  A    between atoms: _338  and  _339
REMARK  124  A    between atoms: _338  and  _341
REMARK  125  A    between atoms: _341  and  _342
REMARK  126  A    between atoms: _347  and  _348
REMARK  127  A    between atoms: _350  and  _352
REMARK  128  A    between atoms: _352  and  _353
REMARK  129  A    between atoms: _352  and  _355
REMARK  130  A    between atoms: _355  and  _356
REMARK  131  A    between atoms: _359  and  _361
REMARK  132  A    between atoms: _361  and  _362
REMARK  133  A    between atoms: _361  and  _364
REMARK  134  A    between atoms: _364  and  _365
REMARK  135  A    between atoms: _368  and  _370
REMARK  136  A    between atoms: _370  and  _371
REMARK  137  A    between atoms: _370  and  _373
REMARK  138  A    between atoms: _373  and  _374
REMARK  139  A    between atoms: _374  and  _375
REMARK  140  A    between atoms: _378  and  _380
REMARK  141  A    between atoms: _380  and  _381
REMARK  142  A    between atoms: _380  and  _383
REMARK  143  A    between atoms: _383  and  _384
REMARK  144  A    between atoms: _384  and  _385
REMARK  145  A    between atoms: _385  and  _386
REMARK  146  A    between atoms: _395  and  _397
REMARK  147  A    between atoms: _397  and  _398
REMARK  148  A    between atoms: _400  and  _402
REMARK  149  A    between atoms: _402  and  _403
REMARK  150  A    between atoms: _402  and  _405
REMARK  151  A    between atoms: _405  and  _406
REMARK                            x       y       z     vdW  Elec       q    Type
REMARK                         _______ _______ _______ _____ _____    ______ ____
ROOT
ATOM      1  CA  GLU A   1      44.024  59.811   9.565  0.00  0.00    +0.134 C 
ENDROOT
BRANCH   1   2
ATOM      2  N   GLU A   1      43.448  58.718  10.378  0.00  0.00    -0.239 NA
ATOM      3  H   GLU A   1      43.106  58.921  11.339  0.00  0.00    +0.142 HD
ENDBRANCH   1   2
BRANCH   1   4
ATOM      4  C   GLU A   1      45.509  59.985   9.878  0.00  0.00    +0.224 C 
ATOM      5  O   GLU A   1      45.884  60.568  10.903  0.00  0.00    -0.287 OA
ENDBRANCH   1   4
BRANCH   1   6
ATOM      6  CB  GLU A   1      43.268  61.123   9.807  0.00  0.00    +0.037 C 
BRANCH   6   7
ATOM      7  CG  GLU A   1      41.756  61.016   9.521  0.00  0.00    +0.116 C 
BRANCH   7   8
ATOM      8  CD  GLU A   1      40.910  60.593  10.711  0.00  0.00    +0.365 C 
ATOM      9  OE2 GLU A   1      41.474  60.365  11.786  0.00  0.00    -0.246 OA
ATOM     10  OE1 GLU A   1      39.652  60.528  10.560  0.00  0.00    -0.246 OA
ENDBRANCH   7   8
ENDBRANCH   6   7
ENDBRANCH   1   6
TORSDOF 5
REMARK  Name = ../refined-set-2016/3dx2/3dx2_pocket.pdb
REMARK  151 active torsions:
REMARK  status: ('A' for Active; 'I' for Inactive)
REMARK    1  A    between atoms: _1  and  _3
REMARK    2  A    between atoms: _14  and  _17
REMARK    3  A    between atoms: _17  and  _18
REMARK    4  A    between atoms: _25  and  _26
REMARK    5  A    between atoms: _33  and  _34
REMARK    6  A    between atoms: _39  and  _41
REMARK    7  A    between atoms: _41  and  _42
REMARK    8  A    between atoms: _44  and  _46
REMARK    9  A    between atoms: _46  and  _47
REMARK   10  A    between atoms: _46  and  _49
REMARK   11  A    between atoms: _49  and  _50
REMARK   12  A    between atoms: _60  and  _62
REMARK   13  A    between atoms: _62  and  _63
REMARK   14  A    between atoms: _62  and  _65
REMARK   15  A    between atoms: _65  and  _66
REMARK   16  A    between atoms: _69  and  _71
REMARK   17  A    between atoms: _71  and  _72
REMARK   18  A    between atoms: _71  and  _74
REMARK   19  A    between atoms: _74  and  _75
REMARK   20  A    between atoms: _80  and  _81
REMARK   21  A    between atoms: _83  and  _85
REMARK   22  A    between atoms: _85  and  _86
REMARK   23  A    between atoms: _85  and  _88
REMARK   24  A    between atoms: _88  and  _89
REMARK   25  A    between atoms: _89  and  _90
REMARK   26  A    between atoms: _93  and  _95
REMARK   27  A    between atoms: _95  and  _96
REMARK   28  A    between atoms: _95  and  _98
REMARK   29  A    between atoms: _98  and  _99
REMARK   30  A    between atoms: _99  and  _100
REMARK   31  A    between atoms: _102  and  _104
REMARK   32  A    between atoms: _104  and  _105
REMARK   33  A    between atoms: _104  and  _107
REMARK   34  A    between atoms: _107  and  _108
REMARK   35  A    between atoms: _111  and  _113
REMARK   36  A    between atoms: _113  and  _114
REMARK   37  A    between atoms: _113  and  _116
REMARK   38  A    between atoms: _116  and  _117
REMARK   39  A    between atoms: _117  and  _119
REMARK   40  A    between atoms: _119  and  ZN_409
REMARK   41  A    between atoms: _121  and  _122
REMARK   42  A    between atoms: _127  and  _129
REMARK   43  A    between atoms: _129  and  _130
REMARK   44  A    between atoms: _129  and  _132
REMARK   45  A    between atoms: _132  and  _133
REMARK   46  A    between atoms: _139  and  _141
REMARK   47  A    between atoms: _141  and  _142
REMARK   48  A    between atoms: _141  and  _144
REMARK   49  A    between atoms: _144  and  _145
REMARK   50  A    between atoms: _145  and  _146
REMARK   51  A    between atoms: _146  and  _147
REMARK   52  A    between atoms: _156  and  _158
REMARK   53  A    between atoms: _158  and  _159
REMARK   54  A    between atoms: _158  and  _161
REMARK   55  A    between atoms: _161  and  _162
REMARK   56  A    between atoms: _167  and  _168
REMARK   57  A    between atoms: _170  and  _172
REMARK   58  A    between atoms: _172  and  _173
REMARK   59  A    between atoms: _172  and  _175
REMARK   60  A    between atoms: _175  and  _176
REMARK   61  A    between atoms: _178  and  _180
REMARK   62  A    between atoms: _180  and  _181
REMARK   63  A    between atoms: _180  and  _183
REMARK   64  A    between atoms: _183  and  _184
REMARK   65  A    between atoms: _189  and  _190
REMARK   66  A    between atoms: _192  and  _194
REMARK   67  A    between atoms: _194  and  _195
REMARK   68  A    between atoms: _194  and  _197
REMARK   69  A    between atoms: _197  and  _198
REMARK   70  A    between atoms: _201  and  _203
REMARK   71  A    between atoms: _203  and  _204
REMARK   72  A    between atoms: _203  and  _206
REMARK   73  A    between atoms: _206  and  _207
REMARK   74  A    between atoms: _210  and  _212
REMARK   75  A    between atoms: _212  and  _213
REMARK   76  A    between atoms: _212  and  _215
REMARK   77  A    between atoms: _215  and  _216
REMARK   78  A    between atoms: _219  and  _221
REMARK   79  A    between atoms: _221  and  _222
REMARK   80  A    between atoms: _221  and  _224
REMARK   81  A    between atoms: _224  and  _225
REMARK   82  A    between atoms: _231  and  _233
REMARK   83  A    between atoms: _233  and  _234
REMARK   84  A    between atoms: _233  and  _236
REMARK   85  A    between atoms: _236  and  _237
REMARK   86  A    between atoms: _242  and  _243
REMARK   87  A    between atoms: _245  and  _247
REMARK   88  A    between atoms: _247  and  _248
REMARK   89  A    between atoms: _247  and  _250
REMARK   90  A    between atoms: _250  and  _251
REMARK   91  A    between atoms: _254  and  _256
REMARK   92  A    between atoms: _256  and  _257
REMARK   93  A    between atoms: _256  and  _259
REMARK   94  A    between atoms: _259  and  _260
REMARK   95  A    between atoms: _270  and  _272
REMARK   96  A    between atoms: _272  and  _273
REMARK   97  A    between atoms: _272  and  _275
REMARK   98  A    between atoms: _275  and  _276
REMARK   99  A    between atoms: _281  and  _283
REMARK  100  A    between atoms: _283  and  _284
REMARK  101  A    between atoms: _283  and  _286
REMARK  102  A    between atoms: _286  and  _287
REMARK  103  A    between atoms: _291  and  ZN_409
REMARK  104  A    between atoms: _292  and  _294
REMARK  105  A    between atoms: _294  and  _295
REMARK  106  A    between atoms: _294  and  _297
REMARK  107  A    between atoms: _297  and  _298
REMARK  108  A    between atoms: _301  and  _303
REMARK  109  A    between atoms: _303  and  _304
REMARK  110  A    between atoms: _306  and  _308
REMARK  111  A    between atoms: _308  and  _309
REMARK  112  A    between atoms: _308  and  _311
REMARK  113  A    between atoms: _311  and  _312
REMARK  114  A    between atoms: _315  and  _317
REMARK  115  A    between atoms: _317  and  _318
REMARK  116  A    between atoms: _317  and  _320
REMARK  117  A    between atoms: _320  and  _321
REMARK  118  A    between atoms: _324  and  _326
REMARK  119  A    between atoms: _326  and  _327
REMARK  120  A    between atoms: _330  and  _332
REMARK  121  A    between atoms: _332  and  _333
REMARK  122  A    between atoms: _336  and  _338
REMARK  123  A    between atoms: _338  and  _339
REMARK  124  A    between atoms: _338  and  _341
REMARK  125  A    between atoms: _341  and  _342
REMARK  126  A    between atoms: _347  and  _348
REMARK  127  A    between atoms: _350  and  _352
REMARK  128  A    between atoms: _352  and  _353
REMARK  129  A    between atoms: _352  and  _355
REMARK  130  A    between atoms: _355  and  _356
REMARK  131  A    between atoms: _359  and  _361
REMARK  132  A    between atoms: _361  and  _362
REMARK  133  A    between atoms: _361  and  _364
REMARK  134  A    between atoms: _364  and  _365
REMARK  135  A    between atoms: _368  and  _370
REMARK  136  A    between atoms: _370  and  _371
REMARK  137  A    between atoms: _370  and  _373
REMARK  138  A    between atoms: _373  and  _374
REMARK  139  A    between atoms: _374  and  _375
REMARK  140  A    between atoms: _378  and  _380
REMARK  141  A    between atoms: _380  and  _381
REMARK  142  A    between atoms: _380  and  _383
REMARK  143  A    between atoms: _383  and  _384
REMARK  144  A    between atoms: _384  and  _385
REMARK  145  A    between atoms: _385  and  _386
REMARK  146  A    between atoms: _395  and  _397
REMARK  147  A    between atoms: _397  and  _398
REMARK  148  A    between atoms: _400  and  _402
REMARK  149  A    between atoms: _402  and  _403
REMARK  150  A    between atoms: _402  and  _405
REMARK  151  A    between atoms: _405  and  _406
REMARK                            x       y       z     vdW  Elec       q    Type
REMARK                         _______ _______ _______ _____ _____    ______ ____
ROOT
ATOM      1  CA  MET A   1      39.904  59.281   4.682  0.00  0.00    +0.134 C 
ENDROOT
BRANCH   1   2
ATOM      2  N   MET A   1      41.014  60.174   5.043  0.00  0.00    -0.239 NA
ATOM      3  H   MET A   1      40.795  61.087   5.491  0.00  0.00    +0.142 HD
ENDBRANCH   1   2
BRANCH   1   4
ATOM      4  C   MET A   1      39.323  59.987   3.461  0.00  0.00    +0.224 C 
ATOM      5  O   MET A   1      38.573  60.951   3.581  0.00  0.00    -0.287 OA
ENDBRANCH   1   4
BRANCH   1   6
ATOM      6  CB  MET A   1      38.901  59.232   5.837  0.00  0.00    +0.037 C 
BRANCH   6   7
ATOM      7  CG  MET A   1      37.662  58.443   5.508  0.00  0.00    +0.059 C 
BRANCH   7   8
ATOM      8  SD  MET A   1      36.453  58.500   6.885  0.00  0.00    -0.139 S 
ATOM      9  CE  MET A   1      37.428  57.713   8.203  0.00  0.00    +0.069 C 
ENDBRANCH   7   8
ENDBRANCH   6   7
ENDBRANCH   1   6
TORSDOF 5
REMARK  Name = ../refined-set-2016/3dx2/3dx2_pocket.pdb
REMARK  151 active torsions:
REMARK  status: ('A' for Active; 'I' for Inactive)
REMARK    1  A    between atoms: _1  and  _3
REMARK    2  A    between atoms: _14  and  _17
REMARK    3  A    between atoms: _17  and  _18
REMARK    4  A    between atoms: _25  and  _26
REMARK    5  A    between atoms: _33  and  _34
REMARK    6  A    between atoms: _39  and  _41
REMARK    7  A    between atoms: _41  and  _42
REMARK    8  A    between atoms: _44  and  _46
REMARK    9  A    between atoms: _46  and  _47
REMARK   10  A    between atoms: _46  and  _49
REMARK   11  A    between atoms: _49  and  _50
REMARK   12  A    between atoms: _60  and  _62
REMARK   13  A    between atoms: _62  and  _63
REMARK   14  A    between atoms: _62  and  _65
REMARK   15  A    between atoms: _65  and  _66
REMARK   16  A    between atoms: _69  and  _71
REMARK   17  A    between atoms: _71  and  _72
REMARK   18  A    between atoms: _71  and  _74
REMARK   19  A    between atoms: _74  and  _75
REMARK   20  A    between atoms: _80  and  _81
REMARK   21  A    between atoms: _83  and  _85
REMARK   22  A    between atoms: _85  and  _86
REMARK   23  A    between atoms: _85  and  _88
REMARK   24  A    between atoms: _88  and  _89
REMARK   25  A    between atoms: _89  and  _90
REMARK   26  A    between atoms: _93  and  _95
REMARK   27  A    between atoms: _95  and  _96
REMARK   28  A    between atoms: _95  and  _98
REMARK   29  A    between atoms: _98  and  _99
REMARK   30  A    between atoms: _99  and  _100
REMARK   31  A    between atoms: _102  and  _104
REMARK   32  A    between atoms: _104  and  _105
REMARK   33  A    between atoms: _104  and  _107
REMARK   34  A    between atoms: _107  and  _108
REMARK   35  A    between atoms: _111  and  _113
REMARK   36  A    between atoms: _113  and  _114
REMARK   37  A    between atoms: _113  and  _116
REMARK   38  A    between atoms: _116  and  _117
REMARK   39  A    between atoms: _117  and  _119
REMARK   40  A    between atoms: _119  and  ZN_409
REMARK   41  A    between atoms: _121  and  _122
REMARK   42  A    between atoms: _127  and  _129
REMARK   43  A    between atoms: _129  and  _130
REMARK   44  A    between atoms: _129  and  _132
REMARK   45  A    between atoms: _132  and  _133
REMARK   46  A    between atoms: _139  and  _141
REMARK   47  A    between atoms: _141  and  _142
REMARK   48  A    between atoms: _141  and  _144
REMARK   49  A    between atoms: _144  and  _145
REMARK   50  A    between atoms: _145  and  _146
REMARK   51  A    between atoms: _146  and  _147
REMARK   52  A    between atoms: _156  and  _158
REMARK   53  A    between atoms: _158  and  _159
REMARK   54  A    between atoms: _158  and  _161
REMARK   55  A    between atoms: _161  and  _162
REMARK   56  A    between atoms: _167  and  _168
REMARK   57  A    between atoms: _170  and  _172
REMARK   58  A    between atoms: _172  and  _173
REMARK   59  A    between atoms: _172  and  _175
REMARK   60  A    between atoms: _175  and  _176
REMARK   61  A    between atoms: _178  and  _180
REMARK   62  A    between atoms: _180  and  _181
REMARK   63  A    between atoms: _180  and  _183
REMARK   64  A    between atoms: _183  and  _184
REMARK   65  A    between atoms: _189  and  _190
REMARK   66  A    between atoms: _192  and  _194
REMARK   67  A    between atoms: _194  and  _195
REMARK   68  A    between atoms: _194  and  _197
REMARK   69  A    between atoms: _197  and  _198
REMARK   70  A    between atoms: _201  and  _203
REMARK   71  A    between atoms: _203  and  _204
REMARK   72  A    between atoms: _203  and  _206
REMARK   73  A    between atoms: _206  and  _207
REMARK   74  A    between atoms: _210  and  _212
REMARK   75  A    between atoms: _212  and  _213
REMARK   76  A    between atoms: _212  and  _215
REMARK   77  A    between atoms: _215  and  _216
REMARK   78  A    between atoms: _219  and  _221
REMARK   79  A    between atoms: _221  and  _222
REMARK   80  A    between atoms: _221  and  _224
REMARK   81  A    between atoms: _224  and  _225
REMARK   82  A    between atoms: _231  and  _233
REMARK   83  A    between atoms: _233  and  _234
REMARK   84  A    between atoms: _233  and  _236
REMARK   85  A    between atoms: _236  and  _237
REMARK   86  A    between atoms: _242  and  _243
REMARK   87  A    between atoms: _245  and  _247
REMARK   88  A    between atoms: _247  and  _248
REMARK   89  A    between atoms: _247  and  _250
REMARK   90  A    between atoms: _250  and  _251
REMARK   91  A    between atoms: _254  and  _256
REMARK   92  A    between atoms: _256  and  _257
REMARK   93  A    between atoms: _256  and  _259
REMARK   94  A    between atoms: _259  and  _260
REMARK   95  A    between atoms: _270  and  _272
REMARK   96  A    between atoms: _272  and  _273
REMARK   97  A    between atoms: _272  and  _275
REMARK   98  A    between atoms: _275  and  _276
REMARK   99  A    between atoms: _281  and  _283
REMARK  100  A    between atoms: _283  and  _284
REMARK  101  A    between atoms: _283  and  _286
REMARK  102  A    between atoms: _286  and  _287
REMARK  103  A    between atoms: _291  and  ZN_409
REMARK  104  A    between atoms: _292  and  _294
REMARK  105  A    between atoms: _294  and  _295
REMARK  106  A    between atoms: _294  and  _297
REMARK  107  A    between atoms: _297  and  _298
REMARK  108  A    between atoms: _301  and  _303
REMARK  109  A    between atoms: _303  and  _304
REMARK  110  A    between atoms: _306  and  _308
REMARK  111  A    between atoms: _308  and  _309
REMARK  112  A    between atoms: _308  and  _311
REMARK  113  A    between atoms: _311  and  _312
REMARK  114  A    between atoms: _315  and  _317
REMARK  115  A    between atoms: _317  and  _318
REMARK  116  A    between atoms: _317  and  _320
REMARK  117  A    between atoms: _320  and  _321
REMARK  118  A    between atoms: _324  and  _326
REMARK  119  A    between atoms: _326  and  _327
REMARK  120  A    between atoms: _330  and  _332
REMARK  121  A    between atoms: _332  and  _333
REMARK  122  A    between atoms: _336  and  _338
REMARK  123  A    between atoms: _338  and  _339
REMARK  124  A    between atoms: _338  and  _341
REMARK  125  A    between atoms: _341  and  _342
REMARK  126  A    between atoms: _347  and  _348
REMARK  127  A    between atoms: _350  and  _352
REMARK  128  A    between atoms: _352  and  _353
REMARK  129  A    between atoms: _352  and  _355
REMARK  130  A    between atoms: _355  and  _356
REMARK  131  A    between atoms: _359  and  _361
REMARK  132  A    between atoms: _361  and  _362
REMARK  133  A    between atoms: _361  and  _364
REMARK  134  A    between atoms: _364  and  _365
REMARK  135  A    between atoms: _368  and  _370
REMARK  136  A    between atoms: _370  and  _371
REMARK  137  A    between atoms: _370  and  _373
REMARK  138  A    between atoms: _373  and  _374
REMARK  139  A    between atoms: _374  and  _375
REMARK  140  A    between atoms: _378  and  _380
REMARK  141  A    between atoms: _380  and  _381
REMARK  142  A    between atoms: _380  and  _383
REMARK  143  A    between atoms: _383  and  _384
REMARK  144  A    between atoms: _384  and  _385
REMARK  145  A    between atoms: _385  and  _386
REMARK  146  A    between atoms: _395  and  _397
REMARK  147  A    between atoms: _397  and  _398
REMARK  148  A    between atoms: _400  and  _402
REMARK  149  A    between atoms: _402  and  _403
REMARK  150  A    between atoms: _402  and  _405
REMARK  151  A    between atoms: _405  and  _406
REMARK                            x       y       z     vdW  Elec       q    Type
REMARK                         _______ _______ _______ _____ _____    ______ ____
ROOT
ATOM      1  NE  ARG A   1      28.582  60.947   5.941  0.00  0.00    -0.265 N 
ATOM      2  CZ  ARG A   1      27.667  61.680   6.572  0.00  0.00    +0.342 C 
ATOM      3  NH2 ARG A   1      28.072  62.494   7.550  0.00  0.00    -0.292 N 
ATOM      4 HH21 ARG A   1      27.379  63.078   8.060  0.00  0.00    +0.255 HD
ATOM      5 HH22 ARG A   1      29.080  62.544   7.801  0.00  0.00    +0.255 HD
ATOM      6  NH1 ARG A   1      26.368  61.561   6.290  0.00  0.00    -0.292 N 
ATOM      7 HH11 ARG A   1      25.671  62.144   6.796  0.00  0.00    +0.255 HD
ATOM      8 HH12 ARG A   1      26.053  60.885   5.565  0.00  0.00    +0.255 HD
ATOM      9  HE  ARG A   1      29.556  60.993   6.302  0.00  0.00    +0.259 HD
ENDROOT
BRANCH   1  10
ATOM     10  CD  ARG A   1      28.341  60.088   4.793  0.00  0.00    +0.174 C 
BRANCH  10  11
ATOM     11  CG  ARG A   1      28.022  58.638   5.082  0.00  0.00    +0.045 C 
BRANCH  11  12
ATOM     12  CB  ARG A   1      27.865  57.882   3.781  0.00  0.00    +0.029 C 
BRANCH  12  13
ATOM     13  CA  ARG A   1      27.239  56.524   4.004  0.00  0.00    +0.133 C 
BRANCH  13  14
ATOM     14  N   ARG A   1      28.205  55.600   4.566  0.00  0.00    -0.239 NA
ATOM     15  H   ARG A   1      29.216  55.678   4.336  0.00  0.00    +0.142 HD
ENDBRANCH  13  14
BRANCH  13  16
ATOM     16  C   ARG A   1      26.722  55.997   2.707  0.00  0.00    +0.224 C 
ATOM     17  O   ARG A   1      27.246  56.285   1.613  0.00  0.00    -0.287 OA
ENDBRANCH  13  16
ENDBRANCH  12  13
ENDBRANCH  11  12
ENDBRANCH  10  11
ENDBRANCH   1  10
TORSDOF 6
REMARK  Name = ../refined-set-2016/3dx2/3dx2_pocket.pdb
REMARK  151 active torsions:
REMARK  status: ('A' for Active; 'I' for Inactive)
REMARK    1  A    between atoms: _1  and  _3
REMARK    2  A    between atoms: _14  and  _17
REMARK    3  A    between atoms: _17  and  _18
REMARK    4  A    between atoms: _25  and  _26
REMARK    5  A    between atoms: _33  and  _34
REMARK    6  A    between atoms: _39  and  _41
REMARK    7  A    between atoms: _41  and  _42
REMARK    8  A    between atoms: _44  and  _46
REMARK    9  A    between atoms: _46  and  _47
REMARK   10  A    between atoms: _46  and  _49
REMARK   11  A    between atoms: _49  and  _50
REMARK   12  A    between atoms: _60  and  _62
REMARK   13  A    between atoms: _62  and  _63
REMARK   14  A    between atoms: _62  and  _65
REMARK   15  A    between atoms: _65  and  _66
REMARK   16  A    between atoms: _69  and  _71
REMARK   17  A    between atoms: _71  and  _72
REMARK   18  A    between atoms: _71  and  _74
REMARK   19  A    between atoms: _74  and  _75
REMARK   20  A    between atoms: _80  and  _81
REMARK   21  A    between atoms: _83  and  _85
REMARK   22  A    between atoms: _85  and  _86
REMARK   23  A    between atoms: _85  and  _88
REMARK   24  A    between atoms: _88  and  _89
REMARK   25  A    between atoms: _89  and  _90
REMARK   26  A    between atoms: _93  and  _95
REMARK   27  A    between atoms: _95  and  _96
REMARK   28  A    between atoms: _95  and  _98
REMARK   29  A    between atoms: _98  and  _99
REMARK   30  A    between atoms: _99  and  _100
REMARK   31  A    between atoms: _102  and  _104
REMARK   32  A    between atoms: _104  and  _105
REMARK   33  A    between atoms: _104  and  _107
REMARK   34  A    between atoms: _107  and  _108
REMARK   35  A    between atoms: _111  and  _113
REMARK   36  A    between atoms: _113  and  _114
REMARK   37  A    between atoms: _113  and  _116
REMARK   38  A    between atoms: _116  and  _117
REMARK   39  A    between atoms: _117  and  _119
REMARK   40  A    between atoms: _119  and  ZN_409
REMARK   41  A    between atoms: _121  and  _122
REMARK   42  A    between atoms: _127  and  _129
REMARK   43  A    between atoms: _129  and  _130
REMARK   44  A    between atoms: _129  and  _132
REMARK   45  A    between atoms: _132  and  _133
REMARK   46  A    between atoms: _139  and  _141
REMARK   47  A    between atoms: _141  and  _142
REMARK   48  A    between atoms: _141  and  _144
REMARK   49  A    between atoms: _144  and  _145
REMARK   50  A    between atoms: _145  and  _146
REMARK   51  A    between atoms: _146  and  _147
REMARK   52  A    between atoms: _156  and  _158
REMARK   53  A    between atoms: _158  and  _159
REMARK   54  A    between atoms: _158  and  _161
REMARK   55  A    between atoms: _161  and  _162
REMARK   56  A    between atoms: _167  and  _168
REMARK   57  A    between atoms: _170  and  _172
REMARK   58  A    between atoms: _172  and  _173
REMARK   59  A    between atoms: _172  and  _175
REMARK   60  A    between atoms: _175  and  _176
REMARK   61  A    between atoms: _178  and  _180
REMARK   62  A    between atoms: _180  and  _181
REMARK   63  A    between atoms: _180  and  _183
REMARK   64  A    between atoms: _183  and  _184
REMARK   65  A    between atoms: _189  and  _190
REMARK   66  A    between atoms: _192  and  _194
REMARK   67  A    between atoms: _194  and  _195
REMARK   68  A    between atoms: _194  and  _197
REMARK   69  A    between atoms: _197  and  _198
REMARK   70  A    between atoms: _201  and  _203
REMARK   71  A    between atoms: _203  and  _204
REMARK   72  A    between atoms: _203  and  _206
REMARK   73  A    between atoms: _206  and  _207
REMARK   74  A    between atoms: _210  and  _212
REMARK   75  A    between atoms: _212  and  _213
REMARK   76  A    between atoms: _212  and  _215
REMARK   77  A    between atoms: _215  and  _216
REMARK   78  A    between atoms: _219  and  _221
REMARK   79  A    between atoms: _221  and  _222
REMARK   80  A    between atoms: _221  and  _224
REMARK   81  A    between atoms: _224  and  _225
REMARK   82  A    between atoms: _231  and  _233
REMARK   83  A    between atoms: _233  and  _234
REMARK   84  A    between atoms: _233  and  _236
REMARK   85  A    between atoms: _236  and  _237
REMARK   86  A    between atoms: _242  and  _243
REMARK   87  A    between atoms: _245  and  _247
REMARK   88  A    between atoms: _247  and  _248
REMARK   89  A    between atoms: _247  and  _250
REMARK   90  A    between atoms: _250  and  _251
REMARK   91  A    between atoms: _254  and  _256
REMARK   92  A    between atoms: _256  and  _257
REMARK   93  A    between atoms: _256  and  _259
REMARK   94  A    between atoms: _259  and  _260
REMARK   95  A    between atoms: _270  and  _272
REMARK   96  A    between atoms: _272  and  _273
REMARK   97  A    between atoms: _272  and  _275
REMARK   98  A    between atoms: _275  and  _276
REMARK   99  A    between atoms: _281  and  _283
REMARK  100  A    between atoms: _283  and  _284
REMARK  101  A    between atoms: _283  and  _286
REMARK  102  A    between atoms: _286  and  _287
REMARK  103  A    between atoms: _291  and  ZN_409
REMARK  104  A    between atoms: _292  and  _294
REMARK  105  A    between atoms: _294  and  _295
REMARK  106  A    between atoms: _294  and  _297
REMARK  107  A    between atoms: _297  and  _298
REMARK  108  A    between atoms: _301  and  _303
REMARK  109  A    between atoms: _303  and  _304
REMARK  110  A    between atoms: _306  and  _308
REMARK  111  A    between atoms: _308  and  _309
REMARK  112  A    between atoms: _308  and  _311
REMARK  113  A    between atoms: _311  and  _312
REMARK  114  A    between atoms: _315  and  _317
REMARK  115  A    between atoms: _317  and  _318
REMARK  116  A    between atoms: _317  and  _320
REMARK  117  A    between atoms: _320  and  _321
REMARK  118  A    between atoms: _324  and  _326
REMARK  119  A    between atoms: _326  and  _327
REMARK  120  A    between atoms: _330  and  _332
REMARK  121  A    between atoms: _332  and  _333
REMARK  122  A    between atoms: _336  and  _338
REMARK  123  A    between atoms: _338  and  _339
REMARK  124  A    between atoms: _338  and  _341
REMARK  125  A    between atoms: _341  and  _342
REMARK  126  A    between atoms: _347  and  _348
REMARK  127  A    between atoms: _350  and  _352
REMARK  128  A    between atoms: _352  and  _353
REMARK  129  A    between atoms: _352  and  _355
REMARK  130  A    between atoms: _355  and  _356
REMARK  131  A    between atoms: _359  and  _361
REMARK  132  A    between atoms: _361  and  _362
REMARK  133  A    between atoms: _361  and  _364
REMARK  134  A    between atoms: _364  and  _365
REMARK  135  A    between atoms: _368  and  _370
REMARK  136  A    between atoms: _370  and  _371
REMARK  137  A    between atoms: _370  and  _373
REMARK  138  A    between atoms: _373  and  _374
REMARK  139  A    between atoms: _374  and  _375
REMARK  140  A    between atoms: _378  and  _380
REMARK  141  A    between atoms: _380  and  _381
REMARK  142  A    between atoms: _380  and  _383
REMARK  143  A    between atoms: _383  and  _384
REMARK  144  A    between atoms: _384  and  _385
REMARK  145  A    between atoms: _385  and  _386
REMARK  146  A    between atoms: _395  and  _397
REMARK  147  A    between atoms: _397  and  _398
REMARK  148  A    between atoms: _400  and  _402
REMARK  149  A    between atoms: _402  and  _403
REMARK  150  A    between atoms: _402  and  _405
REMARK  151  A    between atoms: _405  and  _406
REMARK                            x       y       z     vdW  Elec       q    Type
REMARK                         _______ _______ _______ _____ _____    ______ ____
ROOT
ATOM      1  C   SER A   2      26.077  56.898  11.937  0.00  0.00    +0.243 C 
ATOM      2  O   SER A   2      25.676  55.805  12.359  0.00  0.00    -0.273 OA
ATOM      3  N   TYR A   3      27.354  57.294  12.016  0.00  0.00    -0.297 N 
ATOM      4  H   TYR A   3      27.659  58.154  11.517  0.00  0.00    +0.150 HD
ENDROOT
BRANCH   3   5
ATOM      5  CA  TYR A   3      28.317  56.531  12.793  0.00  0.00    +0.153 C 
BRANCH   5   6
ATOM      6  C   TYR A   3      28.424  57.059  14.221  0.00  0.00    +0.241 C 
ATOM      7  O   TYR A   3      29.271  56.582  14.978  0.00  0.00    -0.273 OA
ATOM      8  N   ASP A   4      27.615  58.053  14.580  0.00  0.00    -0.298 N 
ATOM      9  H   ASP A   4      26.958  58.474  13.892  0.00  0.00    +0.150 HD
BRANCH   8  10
ATOM     10  CA  ASP A   4      27.664  58.547  15.963  0.00  0.00    +0.148 C 
BRANCH  10  11
ATOM     11  C   ASP A   4      27.075  57.526  16.934  0.00  0.00    +0.227 C 
ATOM     12  O   ASP A   4      26.532  56.497  16.526  0.00  0.00    -0.286 OA
ENDBRANCH  10  11
BRANCH  10  13
ATOM     13  CB  ASP A   4      27.015  59.941  16.105  0.00  0.00    +0.142 C 
BRANCH  13  14
ATOM     14  CG  ASP A   4      25.502  59.962  15.835  0.00  0.00    +0.367 C 
ATOM     15  OD2 ASP A   4      24.941  61.093  15.779  0.00  0.00    -0.246 OA
ATOM     16  OD1 ASP A   4      24.858  58.893  15.707  0.00  0.00    -0.246 OA
ENDBRANCH  13  14
ENDBRANCH  10  13
ENDBRANCH   8  10
ENDBRANCH   5   6
BRANCH   5  17
ATOM     17  CB  TYR A   3      29.706  56.609  12.143  0.00  0.00    +0.055 C 
BRANCH  17  18
ATOM     18  CG  TYR A   3      30.170  58.027  11.899  0.00  0.00    -0.020 A 
ATOM     19  CD2 TYR A   3      30.638  58.832  12.957  0.00  0.00    -0.001 A 
ATOM     20  CE2 TYR A   3      31.067  60.136  12.737  0.00  0.00    +0.036 A 
ATOM     21  CZ  TYR A   3      30.994  60.652  11.437  0.00  0.00    +0.134 A 
ATOM     22  CE1 TYR A   3      30.523  59.889  10.389  0.00  0.00    +0.036 A 
ATOM     23  CD1 TYR A   3      30.101  58.577  10.619  0.00  0.00    -0.001 A 
BRANCH  21  24
ATOM     24  OH  TYR A   3      31.394  61.934  11.163  0.00  0.00    -0.506 OA
ATOM     25  HH  TYR A   3      31.707  62.366  11.997  0.00  0.00    +0.292 HD
ENDBRANCH  21  24
ENDBRANCH  17  18
ENDBRANCH   5  17
ENDBRANCH   3   5
BRANCH   1  26
ATOM     26  CA  SER A   2      25.101  57.860  11.298  0.00  0.00    +0.178 C 
BRANCH  26  28
ATOM     27  C   TYR A   1      23.145  57.484   9.889  0.00  0.00    +0.239 C 
ATOM     28  N   SER A   2      23.835  57.184  10.984  0.00  0.00    -0.295 N 
ATOM     29  H   SER A   2      23.472  56.456  11.632  0.00  0.00    +0.150 HD
ATOM     30  O   TYR A   1      23.551  58.286   9.029  0.00  0.00    -0.274 OA
BRANCH  27  31
ATOM     31  CA  TYR A   1      21.805  56.798   9.708  0.00  0.00    +0.149 C 
BRANCH  31  32
ATOM     32  N   TYR A   1      21.742  55.495  10.347  0.00  0.00    -0.238 NA
ATOM     33  H   TYR A   1      21.149  55.373  11.193  0.00  0.00    +0.142 HD
ENDBRANCH  31  32
BRANCH  31  34
ATOM     34  CB  TYR A   1      20.666  57.632  10.275  0.00  0.00    +0.053 C 
BRANCH  34  35
ATOM     35  CG  TYR A   1      20.766  59.134  10.119  0.00  0.00    -0.020 A 
ATOM     36  CD2 TYR A   1      21.151  59.937  11.199  0.00  0.00    -0.001 A 
ATOM     37  CE2 TYR A   1      21.224  61.298  11.084  0.00  0.00    +0.036 A 
ATOM     38  CZ  TYR A   1      20.885  61.903   9.892  0.00  0.00    +0.134 A 
ATOM     39  CE1 TYR A   1      20.487  61.158   8.793  0.00  0.00    +0.036 A 
ATOM     40  CD1 TYR A   1      20.422  59.762   8.908  0.00  0.00    -0.001 A 
BRANCH  38  41
ATOM     41  OH  TYR A   1      20.953  63.278   9.864  0.00  0.00    -0.506 OA
ATOM     42  HH  TYR A   1      20.690  63.602   8.966  0.00  0.00    +0.292 HD
ENDBRANCH  38  41
ENDBRANCH  34  35
ENDBRANCH  31  34
ENDBRANCH  27  31
ENDBRANCH  26  28
BRANCH  26  43
ATOM     43  CB  SER A   2      24.833  59.023  12.248  0.00  0.00    +0.166 C 
BRANCH  43  44
ATOM     44  OG  SER A   2      26.023  59.697  12.639  0.00  0.00    -0.380 OA
ATOM     45  H   SER A   2      26.475  60.058  11.836  0.00  0.00    +0.211 HD
ENDBRANCH  43  44
ENDBRANCH  26  43
ENDBRANCH   1  26
TORSDOF 18
REMARK  Name = ../refined-set-2016/3dx2/3dx2_pocket.pdb
REMARK  151 active torsions:
REMARK  status: ('A' for Active; 'I' for Inactive)
REMARK    1  A    between atoms: _1  and  _3
REMARK    2  A    between atoms: _14  and  _17
REMARK    3  A    between atoms: _17  and  _18
REMARK    4  A    between atoms: _25  and  _26
REMARK    5  A    between atoms: _33  and  _34
REMARK    6  A    between atoms: _39  and  _41
REMARK    7  A    between atoms: _41  and  _42
REMARK    8  A    between atoms: _44  and  _46
REMARK    9  A    between atoms: _46  and  _47
REMARK   10  A    between atoms: _46  and  _49
REMARK   11  A    between atoms: _49  and  _50
REMARK   12  A    between atoms: _60  and  _62
REMARK   13  A    between atoms: _62  and  _63
REMARK   14  A    between atoms: _62  and  _65
REMARK   15  A    between atoms: _65  and  _66
REMARK   16  A    between atoms: _69  and  _71
REMARK   17  A    between atoms: _71  and  _72
REMARK   18  A    between atoms: _71  and  _74
REMARK   19  A    between atoms: _74  and  _75
REMARK   20  A    between atoms: _80  and  _81
REMARK   21  A    between atoms: _83  and  _85
REMARK   22  A    between atoms: _85  and  _86
REMARK   23  A    between atoms: _85  and  _88
REMARK   24  A    between atoms: _88  and  _89
REMARK   25  A    between atoms: _89  and  _90
REMARK   26  A    between atoms: _93  and  _95
REMARK   27  A    between atoms: _95  and  _96
REMARK   28  A    between atoms: _95  and  _98
REMARK   29  A    between atoms: _98  and  _99
REMARK   30  A    between atoms: _99  and  _100
REMARK   31  A    between atoms: _102  and  _104
REMARK   32  A    between atoms: _104  and  _105
REMARK   33  A    between atoms: _104  and  _107
REMARK   34  A    between atoms: _107  and  _108
REMARK   35  A    between atoms: _111  and  _113
REMARK   36  A    between atoms: _113  and  _114
REMARK   37  A    between atoms: _113  and  _116
REMARK   38  A    between atoms: _116  and  _117
REMARK   39  A    between atoms: _117  and  _119
REMARK   40  A    between atoms: _119  and  ZN_409
REMARK   41  A    between atoms: _121  and  _122
REMARK   42  A    between atoms: _127  and  _129
REMARK   43  A    between atoms: _129  and  _130
REMARK   44  A    between atoms: _129  and  _132
REMARK   45  A    between atoms: _132  and  _133
REMARK   46  A    between atoms: _139  and  _141
REMARK   47  A    between atoms: _141  and  _142
REMARK   48  A    between atoms: _141  and  _144
REMARK   49  A    between atoms: _144  and  _145
REMARK   50  A    between atoms: _145  and  _146
REMARK   51  A    between atoms: _146  and  _147
REMARK   52  A    between atoms: _156  and  _158
REMARK   53  A    between atoms: _158  and  _159
REMARK   54  A    between atoms: _158  and  _161
REMARK   55  A    between atoms: _161  and  _162
REMARK   56  A    between atoms: _167  and  _168
REMARK   57  A    between atoms: _170  and  _172
REMARK   58  A    between atoms: _172  and  _173
REMARK   59  A    between atoms: _172  and  _175
REMARK   60  A    between atoms: _175  and  _176
REMARK   61  A    between atoms: _178  and  _180
REMARK   62  A    between atoms: _180  and  _181
REMARK   63  A    between atoms: _180  and  _183
REMARK   64  A    between atoms: _183  and  _184
REMARK   65  A    between atoms: _189  and  _190
REMARK   66  A    between atoms: _192  and  _194
REMARK   67  A    between atoms: _194  and  _195
REMARK   68  A    between atoms: _194  and  _197
REMARK   69  A    between atoms: _197  and  _198
REMARK   70  A    between atoms: _201  and  _203
REMARK   71  A    between atoms: _203  and  _204
REMARK   72  A    between atoms: _203  and  _206
REMARK   73  A    between atoms: _206  and  _207
REMARK   74  A    between atoms: _210  and  _212
REMARK   75  A    between atoms: _212  and  _213
REMARK   76  A    between atoms: _212  and  _215
REMARK   77  A    between atoms: _215  and  _216
REMARK   78  A    between atoms: _219  and  _221
REMARK   79  A    between atoms: _221  and  _222
REMARK   80  A    between atoms: _221  and  _224
REMARK   81  A    between atoms: _224  and  _225
REMARK   82  A    between atoms: _231  and  _233
REMARK   83  A    between atoms: _233  and  _234
REMARK   84  A    between atoms: _233  and  _236
REMARK   85  A    between atoms: _236  and  _237
REMARK   86  A    between atoms: _242  and  _243
REMARK   87  A    between atoms: _245  and  _247
REMARK   88  A    between atoms: _247  and  _248
REMARK   89  A    between atoms: _247  and  _250
REMARK   90  A    between atoms: _250  and  _251
REMARK   91  A    between atoms: _254  and  _256
REMARK   92  A    between atoms: _256  and  _257
REMARK   93  A    between atoms: _256  and  _259
REMARK   94  A    between atoms: _259  and  _260
REMARK   95  A    between atoms: _270  and  _272
REMARK   96  A    between atoms: _272  and  _273
REMARK   97  A    between atoms: _272  and  _275
REMARK   98  A    between atoms: _275  and  _276
REMARK   99  A    between atoms: _281  and  _283
REMARK  100  A    between atoms: _283  and  _284
REMARK  101  A    between atoms: _283  and  _286
REMARK  102  A    between atoms: _286  and  _287
REMARK  103  A    between atoms: _291  and  ZN_409
REMARK  104  A    between atoms: _292  and  _294
REMARK  105  A    between atoms: _294  and  _295
REMARK  106  A    between atoms: _294  and  _297
REMARK  107  A    between atoms: _297  and  _298
REMARK  108  A    between atoms: _301  and  _303
REMARK  109  A    between atoms: _303  and  _304
REMARK  110  A    between atoms: _306  and  _308
REMARK  111  A    between atoms: _308  and  _309
REMARK  112  A    between atoms: _308  and  _311
REMARK  113  A    between atoms: _311  and  _312
REMARK  114  A    between atoms: _315  and  _317
REMARK  115  A    between atoms: _317  and  _318
REMARK  116  A    between atoms: _317  and  _320
REMARK  117  A    between atoms: _320  and  _321
REMARK  118  A    between atoms: _324  and  _326
REMARK  119  A    between atoms: _326  and  _327
REMARK  120  A    between atoms: _330  and  _332
REMARK  121  A    between atoms: _332  and  _333
REMARK  122  A    between atoms: _336  and  _338
REMARK  123  A    between atoms: _338  and  _339
REMARK  124  A    between atoms: _338  and  _341
REMARK  125  A    between atoms: _341  and  _342
REMARK  126  A    between atoms: _347  and  _348
REMARK  127  A    between atoms: _350  and  _352
REMARK  128  A    between atoms: _352  and  _353
REMARK  129  A    between atoms: _352  and  _355
REMARK  130  A    between atoms: _355  and  _356
REMARK  131  A    between atoms: _359  and  _361
REMARK  132  A    between atoms: _361  and  _362
REMARK  133  A    between atoms: _361  and  _364
REMARK  134  A    between atoms: _364  and  _365
REMARK  135  A    between atoms: _368  and  _370
REMARK  136  A    between atoms: _370  and  _371
REMARK  137  A    between atoms: _370  and  _373
REMARK  138  A    between atoms: _373  and  _374
REMARK  139  A    between atoms: _374  and  _375
REMARK  140  A    between atoms: _378  and  _380
REMARK  141  A    between atoms: _380  and  _381
REMARK  142  A    between atoms: _380  and  _383
REMARK  143  A    between atoms: _383  and  _384
REMARK  144  A    between atoms: _384  and  _385
REMARK  145  A    between atoms: _385  and  _386
REMARK  146  A    between atoms: _395  and  _397
REMARK  147  A    between atoms: _397  and  _398
REMARK  148  A    between atoms: _400  and  _402
REMARK  149  A    between atoms: _402  and  _403
REMARK  150  A    between atoms: _402  and  _405
REMARK  151  A    between atoms: _405  and  _406
REMARK                            x       y       z     vdW  Elec       q    Type
REMARK                         _______ _______ _______ _____ _____    ______ ____
ROOT
ATOM      1  CA  ASP A   2      33.713  63.740  15.491  0.00  0.00    +0.160 C 
ENDROOT
BRANCH   1   4
ATOM      2  C   ASP A   1      33.105  61.633  16.532  0.00  0.00    +0.239 C 
ATOM      3  O   ASP A   1      34.289  61.341  16.755  0.00  0.00    -0.274 OA
ATOM      4  N   ASP A   2      32.734  62.790  16.004  0.00  0.00    -0.297 N 
ATOM      5  H   ASP A   2      31.722  63.025  15.954  0.00  0.00    +0.150 HD
BRANCH   2   6
ATOM      6  CA  ASP A   1      31.960  60.672  16.889  0.00  0.00    +0.156 C 
BRANCH   6   7
ATOM      7  N   ASP A   1      32.592  59.597  17.644  0.00  0.00    -0.238 NA
ATOM      8  H   ASP A   1      33.587  59.711  17.926  0.00  0.00    +0.142 HD
ENDBRANCH   6   7
BRANCH   6   9
ATOM      9  CB  ASP A   1      30.890  61.339  17.786  0.00  0.00    +0.140 C 
BRANCH   9  10
ATOM     10  CG  ASP A   1      29.796  62.102  17.022  0.00  0.00    +0.367 C 
ATOM     11  OD2 ASP A   1      28.744  62.341  17.667  0.00  0.00    -0.246 OA
ATOM     12  OD1 ASP A   1      29.982  62.490  15.847  0.00  0.00    -0.246 OA
ENDBRANCH   9  10
ENDBRANCH   6   9
ENDBRANCH   2   6
ENDBRANCH   1   4
BRANCH   1  13
ATOM     13  C   ASP A   2      34.545  64.321  16.609  0.00  0.00    +0.241 C 
ATOM     14  O   ASP A   2      34.024  64.819  17.602  0.00  0.00    -0.273 OA
ATOM     15  N   PHE A   3      35.855  64.235  16.456  0.00  0.00    -0.298 N 
ATOM     16  H   PHE A   3      36.229  63.729  15.628  0.00  0.00    +0.150 HD
BRANCH  15  17
ATOM     17  CA  PHE A   3      36.803  64.825  17.409  0.00  0.00    +0.141 C 
BRANCH  17  18
ATOM     18  C   PHE A   3      36.507  64.425  18.857  0.00  0.00    +0.227 C 
ATOM     19  O   PHE A   3      36.684  65.197  19.809  0.00  0.00    -0.286 OA
ENDBRANCH  17  18
BRANCH  17  20
ATOM     20  CB  PHE A   3      36.907  66.352  17.242  0.00  0.00    +0.054 C 
BRANCH  20  21
ATOM     21  CG  PHE A   3      37.523  66.756  15.925  0.00  0.00    -0.020 A 
ATOM     22  CD2 PHE A   3      38.902  66.726  15.764  0.00  0.00    -0.004 A 
ATOM     23  CE2 PHE A   3      39.472  67.122  14.534  0.00  0.00    -0.000 A 
ATOM     24  CZ  PHE A   3      38.647  67.488  13.485  0.00  0.00    -0.000 A 
ATOM     25  CE1 PHE A   3      37.311  67.502  13.628  0.00  0.00    -0.000 A 
ATOM     26  CD1 PHE A   3      36.732  67.135  14.845  0.00  0.00    -0.004 A 
ENDBRANCH  20  21
ENDBRANCH  17  20
ENDBRANCH  15  17
ENDBRANCH   1  13
BRANCH   1  27
ATOM     27  CB  ASP A   2      32.996  64.839  14.723  0.00  0.00    +0.143 C 
BRANCH  27  28
ATOM     28  CG  ASP A   2      32.407  64.335  13.409  0.00  0.00    +0.367 C 
ATOM     29  OD2 ASP A   2      32.458  63.105  13.151  0.00  0.00    -0.246 OA
ATOM     30  OD1 ASP A   2      31.957  65.197  12.611  0.00  0.00    -0.246 OA
ENDBRANCH  27  28
ENDBRANCH   1  27
TORSDOF 12
REMARK  Name = ../refined-set-2016/3dx2/3dx2_pocket.pdb
REMARK  151 active torsions:
REMARK  status: ('A' for Active; 'I' for Inactive)
REMARK    1  A    between atoms: _1  and  _3
REMARK    2  A    between atoms: _14  and  _17
REMARK    3  A    between atoms: _17  and  _18
REMARK    4  A    between atoms: _25  and  _26
REMARK    5  A    between atoms: _33  and  _34
REMARK    6  A    between atoms: _39  and  _41
REMARK    7  A    between atoms: _41  and  _42
REMARK    8  A    between atoms: _44  and  _46
REMARK    9  A    between atoms: _46  and  _47
REMARK   10  A    between atoms: _46  and  _49
REMARK   11  A    between atoms: _49  and  _50
REMARK   12  A    between atoms: _60  and  _62
REMARK   13  A    between atoms: _62  and  _63
REMARK   14  A    between atoms: _62  and  _65
REMARK   15  A    between atoms: _65  and  _66
REMARK   16  A    between atoms: _69  and  _71
REMARK   17  A    between atoms: _71  and  _72
REMARK   18  A    between atoms: _71  and  _74
REMARK   19  A    between atoms: _74  and  _75
REMARK   20  A    between atoms: _80  and  _81
REMARK   21  A    between atoms: _83  and  _85
REMARK   22  A    between atoms: _85  and  _86
REMARK   23  A    between atoms: _85  and  _88
REMARK   24  A    between atoms: _88  and  _89
REMARK   25  A    between atoms: _89  and  _90
REMARK   26  A    between atoms: _93  and  _95
REMARK   27  A    between atoms: _95  and  _96
REMARK   28  A    between atoms: _95  and  _98
REMARK   29  A    between atoms: _98  and  _99
REMARK   30  A    between atoms: _99  and  _100
REMARK   31  A    between atoms: _102  and  _104
REMARK   32  A    between atoms: _104  and  _105
REMARK   33  A    between atoms: _104  and  _107
REMARK   34  A    between atoms: _107  and  _108
REMARK   35  A    between atoms: _111  and  _113
REMARK   36  A    between atoms: _113  and  _114
REMARK   37  A    between atoms: _113  and  _116
REMARK   38  A    between atoms: _116  and  _117
REMARK   39  A    between atoms: _117  and  _119
REMARK   40  A    between atoms: _119  and  ZN_409
REMARK   41  A    between atoms: _121  and  _122
REMARK   42  A    between atoms: _127  and  _129
REMARK   43  A    between atoms: _129  and  _130
REMARK   44  A    between atoms: _129  and  _132
REMARK   45  A    between atoms: _132  and  _133
REMARK   46  A    between atoms: _139  and  _141
REMARK   47  A    between atoms: _141  and  _142
REMARK   48  A    between atoms: _141  and  _144
REMARK   49  A    between atoms: _144  and  _145
REMARK   50  A    between atoms: _145  and  _146
REMARK   51  A    between atoms: _146  and  _147
REMARK   52  A    between atoms: _156  and  _158
REMARK   53  A    between atoms: _158  and  _159
REMARK   54  A    between atoms: _158  and  _161
REMARK   55  A    between atoms: _161  and  _162
REMARK   56  A    between atoms: _167  and  _168
REMARK   57  A    between atoms: _170  and  _172
REMARK   58  A    between atoms: _172  and  _173
REMARK   59  A    between atoms: _172  and  _175
REMARK   60  A    between atoms: _175  and  _176
REMARK   61  A    between atoms: _178  and  _180
REMARK   62  A    between atoms: _180  and  _181
REMARK   63  A    between atoms: _180  and  _183
REMARK   64  A    between atoms: _183  and  _184
REMARK   65  A    between atoms: _189  and  _190
REMARK   66  A    between atoms: _192  and  _194
REMARK   67  A    between atoms: _194  and  _195
REMARK   68  A    between atoms: _194  and  _197
REMARK   69  A    between atoms: _197  and  _198
REMARK   70  A    between atoms: _201  and  _203
REMARK   71  A    between atoms: _203  and  _204
REMARK   72  A    between atoms: _203  and  _206
REMARK   73  A    between atoms: _206  and  _207
REMARK   74  A    between atoms: _210  and  _212
REMARK   75  A    between atoms: _212  and  _213
REMARK   76  A    between atoms: _212  and  _215
REMARK   77  A    between atoms: _215  and  _216
REMARK   78  A    between atoms: _219  and  _221
REMARK   79  A    between atoms: _221  and  _222
REMARK   80  A    between atoms: _221  and  _224
REMARK   81  A    between atoms: _224  and  _225
REMARK   82  A    between atoms: _231  and  _233
REMARK   83  A    between atoms: _233  and  _234
REMARK   84  A    between atoms: _233  and  _236
REMARK   85  A    between atoms: _236  and  _237
REMARK   86  A    between atoms: _242  and  _243
REMARK   87  A    between atoms: _245  and  _247
REMARK   88  A    between atoms: _247  and  _248
REMARK   89  A    between atoms: _247  and  _250
REMARK   90  A    between atoms: _250  and  _251
REMARK   91  A    between atoms: _254  and  _256
REMARK   92  A    between atoms: _256  and  _257
REMARK   93  A    between atoms: _256  and  _259
REMARK   94  A    between atoms: _259  and  _260
REMARK   95  A    between atoms: _270  and  _272
REMARK   96  A    between atoms: _272  and  _273
REMARK   97  A    between atoms: _272  and  _275
REMARK   98  A    between atoms: _275  and  _276
REMARK   99  A    between atoms: _281  and  _283
REMARK  100  A    between atoms: _283  and  _284
REMARK  101  A    between atoms: _283  and  _286
REMARK  102  A    between atoms: _286  and  _287
REMARK  103  A    between atoms: _291  and  ZN_409
REMARK  104  A    between atoms: _292  and  _294
REMARK  105  A    between atoms: _294  and  _295
REMARK  106  A    between atoms: _294  and  _297
REMARK  107  A    between atoms: _297  and  _298
REMARK  108  A    between atoms: _301  and  _303
REMARK  109  A    between atoms: _303  and  _304
REMARK  110  A    between atoms: _306  and  _308
REMARK  111  A    between atoms: _308  and  _309
REMARK  112  A    between atoms: _308  and  _311
REMARK  113  A    between atoms: _311  and  _312
REMARK  114  A    between atoms: _315  and  _317
REMARK  115  A    between atoms: _317  and  _318
REMARK  116  A    between atoms: _317  and  _320
REMARK  117  A    between atoms: _320  and  _321
REMARK  118  A    between atoms: _324  and  _326
REMARK  119  A    between atoms: _326  and  _327
REMARK  120  A    between atoms: _330  and  _332
REMARK  121  A    between atoms: _332  and  _333
REMARK  122  A    between atoms: _336  and  _338
REMARK  123  A    between atoms: _338  and  _339
REMARK  124  A    between atoms: _338  and  _341
REMARK  125  A    between atoms: _341  and  _342
REMARK  126  A    between atoms: _347  and  _348
REMARK  127  A    between atoms: _350  and  _352
REMARK  128  A    between atoms: _352  and  _353
REMARK  129  A    between atoms: _352  and  _355
REMARK  130  A    between atoms: _355  and  _356
REMARK  131  A    between atoms: _359  and  _361
REMARK  132  A    between atoms: _361  and  _362
REMARK  133  A    between atoms: _361  and  _364
REMARK  134  A    between atoms: _364  and  _365
REMARK  135  A    between atoms: _368  and  _370
REMARK  136  A    between atoms: _370  and  _371
REMARK  137  A    between atoms: _370  and  _373
REMARK  138  A    between atoms: _373  and  _374
REMARK  139  A    between atoms: _374  and  _375
REMARK  140  A    between atoms: _378  and  _380
REMARK  141  A    between atoms: _380  and  _381
REMARK  142  A    between atoms: _380  and  _383
REMARK  143  A    between atoms: _383  and  _384
REMARK  144  A    between atoms: _384  and  _385
REMARK  145  A    between atoms: _385  and  _386
REMARK  146  A    between atoms: _395  and  _397
REMARK  147  A    between atoms: _397  and  _398
REMARK  148  A    between atoms: _400  and  _402
REMARK  149  A    between atoms: _402  and  _403
REMARK  150  A    between atoms: _402  and  _405
REMARK  151  A    between atoms: _405  and  _406
REMARK                            x       y       z     vdW  Elec       q    Type
REMARK                         _______ _______ _______ _____ _____    ______ ____
ROOT
ATOM      1  CG  TYR A   1      24.889  59.440   0.897  0.00  0.00    -0.020 A 
ATOM      2  CD2 TYR A   1      24.433  58.358   1.641  0.00  0.00    -0.001 A 
ATOM      3  CE2 TYR A   1      24.290  58.463   3.008  0.00  0.00    +0.036 A 
ATOM      4  CZ  TYR A   1      24.648  59.655   3.651  0.00  0.00    +0.134 A 
ATOM      5  CE1 TYR A   1      25.120  60.740   2.917  0.00  0.00    +0.036 A 
ATOM      6  CD1 TYR A   1      25.230  60.613   1.551  0.00  0.00    -0.001 A 
ENDROOT
BRANCH   4   7
ATOM      7  OH  TYR A   1      24.605  59.799   5.022  0.00  0.00    -0.506 OA
ATOM      8  HH  TYR A   1      24.254  58.967   5.429  0.00  0.00    +0.292 HD
ENDBRANCH   4   7
BRANCH   1   9
ATOM      9  CB  TYR A   1      25.099  59.332  -0.578  0.00  0.00    +0.051 C 
BRANCH   9  10
ATOM     10  CA  TYR A   1      23.892  59.043  -1.449  0.00  0.00    +0.137 C 
BRANCH  10  11
ATOM     11  N   TYR A   1      24.347  59.132  -2.820  0.00  0.00    -0.239 NA
ATOM     12  H   TYR A   1      25.314  59.470  -3.003  0.00  0.00    +0.142 HD
ENDBRANCH  10  11
BRANCH  10  13
ATOM     13  C   TYR A   1      22.779  60.013  -1.122  0.00  0.00    +0.224 C 
ATOM     14  O   TYR A   1      22.805  61.166  -1.551  0.00  0.00    -0.287 OA
ENDBRANCH  10  13
ENDBRANCH   9  10
ENDBRANCH   1   9
TORSDOF 5
REMARK  Name = ../refined-set-2016/3dx2/3dx2_pocket.pdb
REMARK  151 active torsions:
REMARK  status: ('A' for Active; 'I' for Inactive)
REMARK    1  A    between atoms: _1  and  _3
REMARK    2  A    between atoms: _14  and  _17
REMARK    3  A    between atoms: _17  and  _18
REMARK    4  A    between atoms: _25  and  _26
REMARK    5  A    between atoms: _33  and  _34
REMARK    6  A    between atoms: _39  and  _41
REMARK    7  A    between atoms: _41  and  _42
REMARK    8  A    between atoms: _44  and  _46
REMARK    9  A    between atoms: _46  and  _47
REMARK   10  A    between atoms: _46  and  _49
REMARK   11  A    between atoms: _49  and  _50
REMARK   12  A    between atoms: _60  and  _62
REMARK   13  A    between atoms: _62  and  _63
REMARK   14  A    between atoms: _62  and  _65
REMARK   15  A    between atoms: _65  and  _66
REMARK   16  A    between atoms: _69  and  _71
REMARK   17  A    between atoms: _71  and  _72
REMARK   18  A    between atoms: _71  and  _74
REMARK   19  A    between atoms: _74  and  _75
REMARK   20  A    between atoms: _80  and  _81
REMARK   21  A    between atoms: _83  and  _85
REMARK   22  A    between atoms: _85  and  _86
REMARK   23  A    between atoms: _85  and  _88
REMARK   24  A    between atoms: _88  and  _89
REMARK   25  A    between atoms: _89  and  _90
REMARK   26  A    between atoms: _93  and  _95
REMARK   27  A    between atoms: _95  and  _96
REMARK   28  A    between atoms: _95  and  _98
REMARK   29  A    between atoms: _98  and  _99
REMARK   30  A    between atoms: _99  and  _100
REMARK   31  A    between atoms: _102  and  _104
REMARK   32  A    between atoms: _104  and  _105
REMARK   33  A    between atoms: _104  and  _107
REMARK   34  A    between atoms: _107  and  _108
REMARK   35  A    between atoms: _111  and  _113
REMARK   36  A    between atoms: _113  and  _114
REMARK   37  A    between atoms: _113  and  _116
REMARK   38  A    between atoms: _116  and  _117
REMARK   39  A    between atoms: _117  and  _119
REMARK   40  A    between atoms: _119  and  ZN_409
REMARK   41  A    between atoms: _121  and  _122
REMARK   42  A    between atoms: _127  and  _129
REMARK   43  A    between atoms: _129  and  _130
REMARK   44  A    between atoms: _129  and  _132
REMARK   45  A    between atoms: _132  and  _133
REMARK   46  A    between atoms: _139  and  _141
REMARK   47  A    between atoms: _141  and  _142
REMARK   48  A    between atoms: _141  and  _144
REMARK   49  A    between atoms: _144  and  _145
REMARK   50  A    between atoms: _145  and  _146
REMARK   51  A    between atoms: _146  and  _147
REMARK   52  A    between atoms: _156  and  _158
REMARK   53  A    between atoms: _158  and  _159
REMARK   54  A    between atoms: _158  and  _161
REMARK   55  A    between atoms: _161  and  _162
REMARK   56  A    between atoms: _167  and  _168
REMARK   57  A    between atoms: _170  and  _172
REMARK   58  A    between atoms: _172  and  _173
REMARK   59  A    between atoms: _172  and  _175
REMARK   60  A    between atoms: _175  and  _176
REMARK   61  A    between atoms: _178  and  _180
REMARK   62  A    between atoms: _180  and  _181
REMARK   63  A    between atoms: _180  and  _183
REMARK   64  A    between atoms: _183  and  _184
REMARK   65  A    between atoms: _189  and  _190
REMARK   66  A    between atoms: _192  and  _194
REMARK   67  A    between atoms: _194  and  _195
REMARK   68  A    between atoms: _194  and  _197
REMARK   69  A    between atoms: _197  and  _198
REMARK   70  A    between atoms: _201  and  _203
REMARK   71  A    between atoms: _203  and  _204
REMARK   72  A    between atoms: _203  and  _206
REMARK   73  A    between atoms: _206  and  _207
REMARK   74  A    between atoms: _210  and  _212
REMARK   75  A    between atoms: _212  and  _213
REMARK   76  A    between atoms: _212  and  _215
REMARK   77  A    between atoms: _215  and  _216
REMARK   78  A    between atoms: _219  and  _221
REMARK   79  A    between atoms: _221  and  _222
REMARK   80  A    between atoms: _221  and  _224
REMARK   81  A    between atoms: _224  and  _225
REMARK   82  A    between atoms: _231  and  _233
REMARK   83  A    between atoms: _233  and  _234
REMARK   84  A    between atoms: _233  and  _236
REMARK   85  A    between atoms: _236  and  _237
REMARK   86  A    between atoms: _242  and  _243
REMARK   87  A    between atoms: _245  and  _247
REMARK   88  A    between atoms: _247  and  _248
REMARK   89  A    between atoms: _247  and  _250
REMARK   90  A    between atoms: _250  and  _251
REMARK   91  A    between atoms: _254  and  _256
REMARK   92  A    between atoms: _256  and  _257
REMARK   93  A    between atoms: _256  and  _259
REMARK   94  A    between atoms: _259  and  _260
REMARK   95  A    between atoms: _270  and  _272
REMARK   96  A    between atoms: _272  and  _273
REMARK   97  A    between atoms: _272  and  _275
REMARK   98  A    between atoms: _275  and  _276
REMARK   99  A    between atoms: _281  and  _283
REMARK  100  A    between atoms: _283  and  _284
REMARK  101  A    between atoms: _283  and  _286
REMARK  102  A    between atoms: _286  and  _287
REMARK  103  A    between atoms: _291  and  ZN_409
REMARK  104  A    between atoms: _292  and  _294
REMARK  105  A    between atoms: _294  and  _295
REMARK  106  A    between atoms: _294  and  _297
REMARK  107  A    between atoms: _297  and  _298
REMARK  108  A    between atoms: _301  and  _303
REMARK  109  A    between atoms: _303  and  _304
REMARK  110  A    between atoms: _306  and  _308
REMARK  111  A    between atoms: _308  and  _309
REMARK  112  A    between atoms: _308  and  _311
REMARK  113  A    between atoms: _311  and  _312
REMARK  114  A    between atoms: _315  and  _317
REMARK  115  A    between atoms: _317  and  _318
REMARK  116  A    between atoms: _317  and  _320
REMARK  117  A    between atoms: _320  and  _321
REMARK  118  A    between atoms: _324  and  _326
REMARK  119  A    between atoms: _326  and  _327
REMARK  120  A    between atoms: _330  and  _332
REMARK  121  A    between atoms: _332  and  _333
REMARK  122  A    between atoms: _336  and  _338
REMARK  123  A    between atoms: _338  and  _339
REMARK  124  A    between atoms: _338  and  _341
REMARK  125  A    between atoms: _341  and  _342
REMARK  126  A    between atoms: _347  and  _348
REMARK  127  A    between atoms: _350  and  _352
REMARK  128  A    between atoms: _352  and  _353
REMARK  129  A    between atoms: _352  and  _355
REMARK  130  A    between atoms: _355  and  _356
REMARK  131  A    between atoms: _359  and  _361
REMARK  132  A    between atoms: _361  and  _362
REMARK  133  A    between atoms: _361  and  _364
REMARK  134  A    between atoms: _364  and  _365
REMARK  135  A    between atoms: _368  and  _370
REMARK  136  A    between atoms: _370  and  _371
REMARK  137  A    between atoms: _370  and  _373
REMARK  138  A    between atoms: _373  and  _374
REMARK  139  A    between atoms: _374  and  _375
REMARK  140  A    between atoms: _378  and  _380
REMARK  141  A    between atoms: _380  and  _381
REMARK  142  A    between atoms: _380  and  _383
REMARK  143  A    between atoms: _383  and  _384
REMARK  144  A    between atoms: _384  and  _385
REMARK  145  A    between atoms: _385  and  _386
REMARK  146  A    between atoms: _395  and  _397
REMARK  147  A    between atoms: _397  and  _398
REMARK  148  A    between atoms: _400  and  _402
REMARK  149  A    between atoms: _402  and  _403
REMARK  150  A    between atoms: _402  and  _405
REMARK  151  A    between atoms: _405  and  _406
REMARK                            x       y       z     vdW  Elec       q    Type
REMARK                         _______ _______ _______ _____ _____    ______ ____
ROOT
ATOM      1  CA  ASP A   1      20.841  60.498   4.145  0.00  0.00    +0.144 C 
ENDROOT
BRANCH   1   2
ATOM      2  N   ASP A   1      20.935  60.857   2.736  0.00  0.00    -0.239 NA
ATOM      3  H   ASP A   1      21.088  61.850   2.469  0.00  0.00    +0.142 HD
ENDBRANCH   1   2
BRANCH   1   4
ATOM      4  C   ASP A   1      19.413  60.519   4.666  0.00  0.00    +0.225 C 
ATOM      5  O   ASP A   1      19.129  59.878   5.671  0.00  0.00    -0.287 OA
ENDBRANCH   1   4
BRANCH   1   6
ATOM      6  CB  ASP A   1      21.759  61.362   5.044  0.00  0.00    +0.139 C 
BRANCH   6   7
ATOM      7  CG  ASP A   1      21.480  62.864   4.994  0.00  0.00    +0.367 C 
ATOM      8  OD2 ASP A   1      21.958  63.540   5.947  0.00  0.00    -0.246 OA
ATOM      9  OD1 ASP A   1      20.872  63.383   4.026  0.00  0.00    -0.246 OA
ENDBRANCH   6   7
ENDBRANCH   1   6
TORSDOF 4
REMARK  Name = ../refined-set-2016/3dx2/3dx2_pocket.pdb
REMARK  151 active torsions:
REMARK  status: ('A' for Active; 'I' for Inactive)
REMARK    1  A    between atoms: _1  and  _3
REMARK    2  A    between atoms: _14  and  _17
REMARK    3  A    between atoms: _17  and  _18
REMARK    4  A    between atoms: _25  and  _26
REMARK    5  A    between atoms: _33  and  _34
REMARK    6  A    between atoms: _39  and  _41
REMARK    7  A    between atoms: _41  and  _42
REMARK    8  A    between atoms: _44  and  _46
REMARK    9  A    between atoms: _46  and  _47
REMARK   10  A    between atoms: _46  and  _49
REMARK   11  A    between atoms: _49  and  _50
REMARK   12  A    between atoms: _60  and  _62
REMARK   13  A    between atoms: _62  and  _63
REMARK   14  A    between atoms: _62  and  _65
REMARK   15  A    between atoms: _65  and  _66
REMARK   16  A    between atoms: _69  and  _71
REMARK   17  A    between atoms: _71  and  _72
REMARK   18  A    between atoms: _71  and  _74
REMARK   19  A    between atoms: _74  and  _75
REMARK   20  A    between atoms: _80  and  _81
REMARK   21  A    between atoms: _83  and  _85
REMARK   22  A    between atoms: _85  and  _86
REMARK   23  A    between atoms: _85  and  _88
REMARK   24  A    between atoms: _88  and  _89
REMARK   25  A    between atoms: _89  and  _90
REMARK   26  A    between atoms: _93  and  _95
REMARK   27  A    between atoms: _95  and  _96
REMARK   28  A    between atoms: _95  and  _98
REMARK   29  A    between atoms: _98  and  _99
REMARK   30  A    between atoms: _99  and  _100
REMARK   31  A    between atoms: _102  and  _104
REMARK   32  A    between atoms: _104  and  _105
REMARK   33  A    between atoms: _104  and  _107
REMARK   34  A    between atoms: _107  and  _108
REMARK   35  A    between atoms: _111  and  _113
REMARK   36  A    between atoms: _113  and  _114
REMARK   37  A    between atoms: _113  and  _116
REMARK   38  A    between atoms: _116  and  _117
REMARK   39  A    between atoms: _117  and  _119
REMARK   40  A    between atoms: _119  and  ZN_409
REMARK   41  A    between atoms: _121  and  _122
REMARK   42  A    between atoms: _127  and  _129
REMARK   43  A    between atoms: _129  and  _130
REMARK   44  A    between atoms: _129  and  _132
REMARK   45  A    between atoms: _132  and  _133
REMARK   46  A    between atoms: _139  and  _141
REMARK   47  A    between atoms: _141  and  _142
REMARK   48  A    between atoms: _141  and  _144
REMARK   49  A    between atoms: _144  and  _145
REMARK   50  A    between atoms: _145  and  _146
REMARK   51  A    between atoms: _146  and  _147
REMARK   52  A    between atoms: _156  and  _158
REMARK   53  A    between atoms: _158  and  _159
REMARK   54  A    between atoms: _158  and  _161
REMARK   55  A    between atoms: _161  and  _162
REMARK   56  A    between atoms: _167  and  _168
REMARK   57  A    between atoms: _170  and  _172
REMARK   58  A    between atoms: _172  and  _173
REMARK   59  A    between atoms: _172  and  _175
REMARK   60  A    between atoms: _175  and  _176
REMARK   61  A    between atoms: _178  and  _180
REMARK   62  A    between atoms: _180  and  _181
REMARK   63  A    between atoms: _180  and  _183
REMARK   64  A    between atoms: _183  and  _184
REMARK   65  A    between atoms: _189  and  _190
REMARK   66  A    between atoms: _192  and  _194
REMARK   67  A    between atoms: _194  and  _195
REMARK   68  A    between atoms: _194  and  _197
REMARK   69  A    between atoms: _197  and  _198
REMARK   70  A    between atoms: _201  and  _203
REMARK   71  A    between atoms: _203  and  _204
REMARK   72  A    between atoms: _203  and  _206
REMARK   73  A    between atoms: _206  and  _207
REMARK   74  A    between atoms: _210  and  _212
REMARK   75  A    between atoms: _212  and  _213
REMARK   76  A    between atoms: _212  and  _215
REMARK   77  A    between atoms: _215  and  _216
REMARK   78  A    between atoms: _219  and  _221
REMARK   79  A    between atoms: _221  and  _222
REMARK   80  A    between atoms: _221  and  _224
REMARK   81  A    between atoms: _224  and  _225
REMARK   82  A    between atoms: _231  and  _233
REMARK   83  A    between atoms: _233  and  _234
REMARK   84  A    between atoms: _233  and  _236
REMARK   85  A    between atoms: _236  and  _237
REMARK   86  A    between atoms: _242  and  _243
REMARK   87  A    between atoms: _245  and  _247
REMARK   88  A    between atoms: _247  and  _248
REMARK   89  A    between atoms: _247  and  _250
REMARK   90  A    between atoms: _250  and  _251
REMARK   91  A    between atoms: _254  and  _256
REMARK   92  A    between atoms: _256  and  _257
REMARK   93  A    between atoms: _256  and  _259
REMARK   94  A    between atoms: _259  and  _260
REMARK   95  A    between atoms: _270  and  _272
REMARK   96  A    between atoms: _272  and  _273
REMARK   97  A    between atoms: _272  and  _275
REMARK   98  A    between atoms: _275  and  _276
REMARK   99  A    between atoms: _281  and  _283
REMARK  100  A    between atoms: _283  and  _284
REMARK  101  A    between atoms: _283  and  _286
REMARK  102  A    between atoms: _286  and  _287
REMARK  103  A    between atoms: _291  and  ZN_409
REMARK  104  A    between atoms: _292  and  _294
REMARK  105  A    between atoms: _294  and  _295
REMARK  106  A    between atoms: _294  and  _297
REMARK  107  A    between atoms: _297  and  _298
REMARK  108  A    between atoms: _301  and  _303
REMARK  109  A    between atoms: _303  and  _304
REMARK  110  A    between atoms: _306  and  _308
REMARK  111  A    between atoms: _308  and  _309
REMARK  112  A    between atoms: _308  and  _311
REMARK  113  A    between atoms: _311  and  _312
REMARK  114  A    between atoms: _315  and  _317
REMARK  115  A    between atoms: _317  and  _318
REMARK  116  A    between atoms: _317  and  _320
REMARK  117  A    between atoms: _320  and  _321
REMARK  118  A    between atoms: _324  and  _326
REMARK  119  A    between atoms: _326  and  _327
REMARK  120  A    between atoms: _330  and  _332
REMARK  121  A    between atoms: _332  and  _333
REMARK  122  A    between atoms: _336  and  _338
REMARK  123  A    between atoms: _338  and  _339
REMARK  124  A    between atoms: _338  and  _341
REMARK  125  A    between atoms: _341  and  _342
REMARK  126  A    between atoms: _347  and  _348
REMARK  127  A    between atoms: _350  and  _352
REMARK  128  A    between atoms: _352  and  _353
REMARK  129  A    between atoms: _352  and  _355
REMARK  130  A    between atoms: _355  and  _356
REMARK  131  A    between atoms: _359  and  _361
REMARK  132  A    between atoms: _361  and  _362
REMARK  133  A    between atoms: _361  and  _364
REMARK  134  A    between atoms: _364  and  _365
REMARK  135  A    between atoms: _368  and  _370
REMARK  136  A    between atoms: _370  and  _371
REMARK  137  A    between atoms: _370  and  _373
REMARK  138  A    between atoms: _373  and  _374
REMARK  139  A    between atoms: _374  and  _375
REMARK  140  A    between atoms: _378  and  _380
REMARK  141  A    between atoms: _380  and  _381
REMARK  142  A    between atoms: _380  and  _383
REMARK  143  A    between atoms: _383  and  _384
REMARK  144  A    between atoms: _384  and  _385
REMARK  145  A    between atoms: _385  and  _386
REMARK  146  A    between atoms: _395  and  _397
REMARK  147  A    between atoms: _397  and  _398
REMARK  148  A    between atoms: _400  and  _402
REMARK  149  A    between atoms: _402  and  _403
REMARK  150  A    between atoms: _402  and  _405
REMARK  151  A    between atoms: _405  and  _406
REMARK                            x       y       z     vdW  Elec       q    Type
REMARK                         _______ _______ _______ _____ _____    ______ ____
ROOT
ATOM      1  CG  TRP A   1      24.610  64.009   0.501  0.00  0.00    -0.002 A 
ATOM      2  CD2 TRP A   1      25.313  64.253   1.718  0.00  0.00    +0.013 A 
ATOM      3  CE2 TRP A   1      24.372  64.134   2.785  0.00  0.00    +0.056 A 
ATOM      4  CZ2 TRP A   1      24.728  64.303   4.119  0.00  0.00    +0.017 A 
ATOM      5  CH2 TRP A   1      26.032  64.615   4.398  0.00  0.00    +0.001 A 
ATOM      6  CZ3 TRP A   1      27.001  64.740   3.364  0.00  0.00    +0.000 A 
ATOM      7  NE1 TRP A   1      23.154  63.820   2.228  0.00  0.00    -0.352 N 
ATOM      8  HE1 TRP A   1      22.267  63.675   2.752  0.00  0.00    +0.166 HD
ATOM      9  CE3 TRP A   1      26.647  64.577   2.021  0.00  0.00    +0.001 A 
ATOM     10  CD1 TRP A   1      23.304  63.729   0.862  0.00  0.00    +0.068 A 
ENDROOT
BRANCH   1  11
ATOM     11  CB  TRP A   1      25.210  63.965  -0.883  0.00  0.00    +0.053 C 
BRANCH  11  12
ATOM     12  CA  TRP A   1      24.364  64.657  -1.927  0.00  0.00    +0.137 C 
BRANCH  12  13
ATOM     13  N   TRP A   1      23.117  63.930  -2.103  0.00  0.00    -0.239 NA
ATOM     14  H   TRP A   1      23.116  62.894  -2.017  0.00  0.00    +0.142 HD
ENDBRANCH  12  13
BRANCH  12  15
ATOM     15  C   TRP A   1      25.111  64.751  -3.249  0.00  0.00    +0.224 C 
ATOM     16  O   TRP A   1      26.268  64.345  -3.360  0.00  0.00    -0.287 OA
ENDBRANCH  12  15
ENDBRANCH  11  12
ENDBRANCH   1  11
TORSDOF 4
REMARK  Name = ../refined-set-2016/3dx2/3dx2_pocket.pdb
REMARK  151 active torsions:
REMARK  status: ('A' for Active; 'I' for Inactive)
REMARK    1  A    between atoms: _1  and  _3
REMARK    2  A    between atoms: _14  and  _17
REMARK    3  A    between atoms: _17  and  _18
REMARK    4  A    between atoms: _25  and  _26
REMARK    5  A    between atoms: _33  and  _34
REMARK    6  A    between atoms: _39  and  _41
REMARK    7  A    between atoms: _41  and  _42
REMARK    8  A    between atoms: _44  and  _46
REMARK    9  A    between atoms: _46  and  _47
REMARK   10  A    between atoms: _46  and  _49
REMARK   11  A    between atoms: _49  and  _50
REMARK   12  A    between atoms: _60  and  _62
REMARK   13  A    between atoms: _62  and  _63
REMARK   14  A    between atoms: _62  and  _65
REMARK   15  A    between atoms: _65  and  _66
REMARK   16  A    between atoms: _69  and  _71
REMARK   17  A    between atoms: _71  and  _72
REMARK   18  A    between atoms: _71  and  _74
REMARK   19  A    between atoms: _74  and  _75
REMARK   20  A    between atoms: _80  and  _81
REMARK   21  A    between atoms: _83  and  _85
REMARK   22  A    between atoms: _85  and  _86
REMARK   23  A    between atoms: _85  and  _88
REMARK   24  A    between atoms: _88  and  _89
REMARK   25  A    between atoms: _89  and  _90
REMARK   26  A    between atoms: _93  and  _95
REMARK   27  A    between atoms: _95  and  _96
REMARK   28  A    between atoms: _95  and  _98
REMARK   29  A    between atoms: _98  and  _99
REMARK   30  A    between atoms: _99  and  _100
REMARK   31  A    between atoms: _102  and  _104
REMARK   32  A    between atoms: _104  and  _105
REMARK   33  A    between atoms: _104  and  _107
REMARK   34  A    between atoms: _107  and  _108
REMARK   35  A    between atoms: _111  and  _113
REMARK   36  A    between atoms: _113  and  _114
REMARK   37  A    between atoms: _113  and  _116
REMARK   38  A    between atoms: _116  and  _117
REMARK   39  A    between atoms: _117  and  _119
REMARK   40  A    between atoms: _119  and  ZN_409
REMARK   41  A    between atoms: _121  and  _122
REMARK   42  A    between atoms: _127  and  _129
REMARK   43  A    between atoms: _129  and  _130
REMARK   44  A    between atoms: _129  and  _132
REMARK   45  A    between atoms: _132  and  _133
REMARK   46  A    between atoms: _139  and  _141
REMARK   47  A    between atoms: _141  and  _142
REMARK   48  A    between atoms: _141  and  _144
REMARK   49  A    between atoms: _144  and  _145
REMARK   50  A    between atoms: _145  and  _146
REMARK   51  A    between atoms: _146  and  _147
REMARK   52  A    between atoms: _156  and  _158
REMARK   53  A    between atoms: _158  and  _159
REMARK   54  A    between atoms: _158  and  _161
REMARK   55  A    between atoms: _161  and  _162
REMARK   56  A    between atoms: _167  and  _168
REMARK   57  A    between atoms: _170  and  _172
REMARK   58  A    between atoms: _172  and  _173
REMARK   59  A    between atoms: _172  and  _175
REMARK   60  A    between atoms: _175  and  _176
REMARK   61  A    between atoms: _178  and  _180
REMARK   62  A    between atoms: _180  and  _181
REMARK   63  A    between atoms: _180  and  _183
REMARK   64  A    between atoms: _183  and  _184
REMARK   65  A    between atoms: _189  and  _190
REMARK   66  A    between atoms: _192  and  _194
REMARK   67  A    between atoms: _194  and  _195
REMARK   68  A    between atoms: _194  and  _197
REMARK   69  A    between atoms: _197  and  _198
REMARK   70  A    between atoms: _201  and  _203
REMARK   71  A    between atoms: _203  and  _204
REMARK   72  A    between atoms: _203  and  _206
REMARK   73  A    between atoms: _206  and  _207
REMARK   74  A    between atoms: _210  and  _212
REMARK   75  A    between atoms: _212  and  _213
REMARK   76  A    between atoms: _212  and  _215
REMARK   77  A    between atoms: _215  and  _216
REMARK   78  A    between atoms: _219  and  _221
REMARK   79  A    between atoms: _221  and  _222
REMARK   80  A    between atoms: _221  and  _224
REMARK   81  A    between atoms: _224  and  _225
REMARK   82  A    between atoms: _231  and  _233
REMARK   83  A    between atoms: _233  and  _234
REMARK   84  A    between atoms: _233  and  _236
REMARK   85  A    between atoms: _236  and  _237
REMARK   86  A    between atoms: _242  and  _243
REMARK   87  A    between atoms: _245  and  _247
REMARK   88  A    between atoms: _247  and  _248
REMARK   89  A    between atoms: _247  and  _250
REMARK   90  A    between atoms: _250  and  _251
REMARK   91  A    between atoms: _254  and  _256
REMARK   92  A    between atoms: _256  and  _257
REMARK   93  A    between atoms: _256  and  _259
REMARK   94  A    between atoms: _259  and  _260
REMARK   95  A    between atoms: _270  and  _272
REMARK   96  A    between atoms: _272  and  _273
REMARK   97  A    between atoms: _272  and  _275
REMARK   98  A    between atoms: _275  and  _276
REMARK   99  A    between atoms: _281  and  _283
REMARK  100  A    between atoms: _283  and  _284
REMARK  101  A    between atoms: _283  and  _286
REMARK  102  A    between atoms: _286  and  _287
REMARK  103  A    between atoms: _291  and  ZN_409
REMARK  104  A    between atoms: _292  and  _294
REMARK  105  A    between atoms: _294  and  _295
REMARK  106  A    between atoms: _294  and  _297
REMARK  107  A    between atoms: _297  and  _298
REMARK  108  A    between atoms: _301  and  _303
REMARK  109  A    between atoms: _303  and  _304
REMARK  110  A    between atoms: _306  and  _308
REMARK  111  A    between atoms: _308  and  _309
REMARK  112  A    between atoms: _308  and  _311
REMARK  113  A    between atoms: _311  and  _312
REMARK  114  A    between atoms: _315  and  _317
REMARK  115  A    between atoms: _317  and  _318
REMARK  116  A    between atoms: _317  and  _320
REMARK  117  A    between atoms: _320  and  _321
REMARK  118  A    between atoms: _324  and  _326
REMARK  119  A    between atoms: _326  and  _327
REMARK  120  A    between atoms: _330  and  _332
REMARK  121  A    between atoms: _332  and  _333
REMARK  122  A    between atoms: _336  and  _338
REMARK  123  A    between atoms: _338  and  _339
REMARK  124  A    between atoms: _338  and  _341
REMARK  125  A    between atoms: _341  and  _342
REMARK  126  A    between atoms: _347  and  _348
REMARK  127  A    between atoms: _350  and  _352
REMARK  128  A    between atoms: _352  and  _353
REMARK  129  A    between atoms: _352  and  _355
REMARK  130  A    between atoms: _355  and  _356
REMARK  131  A    between atoms: _359  and  _361
REMARK  132  A    between atoms: _361  and  _362
REMARK  133  A    between atoms: _361  and  _364
REMARK  134  A    between atoms: _364  and  _365
REMARK  135  A    between atoms: _368  and  _370
REMARK  136  A    between atoms: _370  and  _371
REMARK  137  A    between atoms: _370  and  _373
REMARK  138  A    between atoms: _373  and  _374
REMARK  139  A    between atoms: _374  and  _375
REMARK  140  A    between atoms: _378  and  _380
REMARK  141  A    between atoms: _380  and  _381
REMARK  142  A    between atoms: _380  and  _383
REMARK  143  A    between atoms: _383  and  _384
REMARK  144  A    between atoms: _384  and  _385
REMARK  145  A    between atoms: _385  and  _386
REMARK  146  A    between atoms: _395  and  _397
REMARK  147  A    between atoms: _397  and  _398
REMARK  148  A    between atoms: _400  and  _402
REMARK  149  A    between atoms: _402  and  _403
REMARK  150  A    between atoms: _402  and  _405
REMARK  151  A    between atoms: _405  and  _406
REMARK                            x       y       z     vdW  Elec       q    Type
REMARK                         _______ _______ _______ _____ _____    ______ ____
ROOT
ATOM      1  CA  THR A   1      34.586  67.825  -2.260  0.00  0.00    +0.160 C 
ENDROOT
BRANCH   1   2
ATOM      2  N   THR A   1      36.038  67.761  -2.222  0.00  0.00    -0.237 NA
ATOM      3  H   THR A   1      36.505  67.378  -1.376  0.00  0.00    +0.142 HD
ENDBRANCH   1   2
BRANCH   1   4
ATOM      4  CB  THR A   1      34.018  67.145  -1.016  0.00  0.00    +0.134 C 
ATOM      5  CG2 THR A   1      34.433  65.669  -0.957  0.00  0.00    +0.034 C 
BRANCH   4   6
ATOM      6  OG1 THR A   1      34.542  67.843   0.117  0.00  0.00    -0.383 OA
ATOM      7  HG1 THR A   1      34.195  67.430   0.947  0.00  0.00    +0.210 HD
ENDBRANCH   4   6
ENDBRANCH   1   4
BRANCH   1   8
ATOM      8  C   THR A   1      34.034  69.253  -2.250  0.00  0.00    +0.227 C 
ATOM      9  O   THR A   1      32.875  69.441  -2.602  0.00  0.00    -0.287 OA
ENDBRANCH   1   8
TORSDOF 4
REMARK  Name = ../refined-set-2016/3dx2/3dx2_pocket.pdb
REMARK  151 active torsions:
REMARK  status: ('A' for Active; 'I' for Inactive)
REMARK    1  A    between atoms: _1  and  _3
REMARK    2  A    between atoms: _14  and  _17
REMARK    3  A    between atoms: _17  and  _18
REMARK    4  A    between atoms: _25  and  _26
REMARK    5  A    between atoms: _33  and  _34
REMARK    6  A    between atoms: _39  and  _41
REMARK    7  A    between atoms: _41  and  _42
REMARK    8  A    between atoms: _44  and  _46
REMARK    9  A    between atoms: _46  and  _47
REMARK   10  A    between atoms: _46  and  _49
REMARK   11  A    between atoms: _49  and  _50
REMARK   12  A    between atoms: _60  and  _62
REMARK   13  A    between atoms: _62  and  _63
REMARK   14  A    between atoms: _62  and  _65
REMARK   15  A    between atoms: _65  and  _66
REMARK   16  A    between atoms: _69  and  _71
REMARK   17  A    between atoms: _71  and  _72
REMARK   18  A    between atoms: _71  and  _74
REMARK   19  A    between atoms: _74  and  _75
REMARK   20  A    between atoms: _80  and  _81
REMARK   21  A    between atoms: _83  and  _85
REMARK   22  A    between atoms: _85  and  _86
REMARK   23  A    between atoms: _85  and  _88
REMARK   24  A    between atoms: _88  and  _89
REMARK   25  A    between atoms: _89  and  _90
REMARK   26  A    between atoms: _93  and  _95
REMARK   27  A    between atoms: _95  and  _96
REMARK   28  A    between atoms: _95  and  _98
REMARK   29  A    between atoms: _98  and  _99
REMARK   30  A    between atoms: _99  and  _100
REMARK   31  A    between atoms: _102  and  _104
REMARK   32  A    between atoms: _104  and  _105
REMARK   33  A    between atoms: _104  and  _107
REMARK   34  A    between atoms: _107  and  _108
REMARK   35  A    between atoms: _111  and  _113
REMARK   36  A    between atoms: _113  and  _114
REMARK   37  A    between atoms: _113  and  _116
REMARK   38  A    between atoms: _116  and  _117
REMARK   39  A    between atoms: _117  and  _119
REMARK   40  A    between atoms: _119  and  ZN_409
REMARK   41  A    between atoms: _121  and  _122
REMARK   42  A    between atoms: _127  and  _129
REMARK   43  A    between atoms: _129  and  _130
REMARK   44  A    between atoms: _129  and  _132
REMARK   45  A    between atoms: _132  and  _133
REMARK   46  A    between atoms: _139  and  _141
REMARK   47  A    between atoms: _141  and  _142
REMARK   48  A    between atoms: _141  and  _144
REMARK   49  A    between atoms: _144  and  _145
REMARK   50  A    between atoms: _145  and  _146
REMARK   51  A    between atoms: _146  and  _147
REMARK   52  A    between atoms: _156  and  _158
REMARK   53  A    between atoms: _158  and  _159
REMARK   54  A    between atoms: _158  and  _161
REMARK   55  A    between atoms: _161  and  _162
REMARK   56  A    between atoms: _167  and  _168
REMARK   57  A    between atoms: _170  and  _172
REMARK   58  A    between atoms: _172  and  _173
REMARK   59  A    between atoms: _172  and  _175
REMARK   60  A    between atoms: _175  and  _176
REMARK   61  A    between atoms: _178  and  _180
REMARK   62  A    between atoms: _180  and  _181
REMARK   63  A    between atoms: _180  and  _183
REMARK   64  A    between atoms: _183  and  _184
REMARK   65  A    between atoms: _189  and  _190
REMARK   66  A    between atoms: _192  and  _194
REMARK   67  A    between atoms: _194  and  _195
REMARK   68  A    between atoms: _194  and  _197
REMARK   69  A    between atoms: _197  and  _198
REMARK   70  A    between atoms: _201  and  _203
REMARK   71  A    between atoms: _203  and  _204
REMARK   72  A    between atoms: _203  and  _206
REMARK   73  A    between atoms: _206  and  _207
REMARK   74  A    between atoms: _210  and  _212
REMARK   75  A    between atoms: _212  and  _213
REMARK   76  A    between atoms: _212  and  _215
REMARK   77  A    between atoms: _215  and  _216
REMARK   78  A    between atoms: _219  and  _221
REMARK   79  A    between atoms: _221  and  _222
REMARK   80  A    between atoms: _221  and  _224
REMARK   81  A    between atoms: _224  and  _225
REMARK   82  A    between atoms: _231  and  _233
REMARK   83  A    between atoms: _233  and  _234
REMARK   84  A    between atoms: _233  and  _236
REMARK   85  A    between atoms: _236  and  _237
REMARK   86  A    between atoms: _242  and  _243
REMARK   87  A    between atoms: _245  and  _247
REMARK   88  A    between atoms: _247  and  _248
REMARK   89  A    between atoms: _247  and  _250
REMARK   90  A    between atoms: _250  and  _251
REMARK   91  A    between atoms: _254  and  _256
REMARK   92  A    between atoms: _256  and  _257
REMARK   93  A    between atoms: _256  and  _259
REMARK   94  A    between atoms: _259  and  _260
REMARK   95  A    between atoms: _270  and  _272
REMARK   96  A    between atoms: _272  and  _273
REMARK   97  A    between atoms: _272  and  _275
REMARK   98  A    between atoms: _275  and  _276
REMARK   99  A    between atoms: _281  and  _283
REMARK  100  A    between atoms: _283  and  _284
REMARK  101  A    between atoms: _283  and  _286
REMARK  102  A    between atoms: _286  and  _287
REMARK  103  A    between atoms: _291  and  ZN_409
REMARK  104  A    between atoms: _292  and  _294
REMARK  105  A    between atoms: _294  and  _295
REMARK  106  A    between atoms: _294  and  _297
REMARK  107  A    between atoms: _297  and  _298
REMARK  108  A    between atoms: _301  and  _303
REMARK  109  A    between atoms: _303  and  _304
REMARK  110  A    between atoms: _306  and  _308
REMARK  111  A    between atoms: _308  and  _309
REMARK  112  A    between atoms: _308  and  _311
REMARK  113  A    between atoms: _311  and  _312
REMARK  114  A    between atoms: _315  and  _317
REMARK  115  A    between atoms: _317  and  _318
REMARK  116  A    between atoms: _317  and  _320
REMARK  117  A    between atoms: _320  and  _321
REMARK  118  A    between atoms: _324  and  _326
REMARK  119  A    between atoms: _326  and  _327
REMARK  120  A    between atoms: _330  and  _332
REMARK  121  A    between atoms: _332  and  _333
REMARK  122  A    between atoms: _336  and  _338
REMARK  123  A    between atoms: _338  and  _339
REMARK  124  A    between atoms: _338  and  _341
REMARK  125  A    between atoms: _341  and  _342
REMARK  126  A    between atoms: _347  and  _348
REMARK  127  A    between atoms: _350  and  _352
REMARK  128  A    between atoms: _352  and  _353
REMARK  129  A    between atoms: _352  and  _355
REMARK  130  A    between atoms: _355  and  _356
REMARK  131  A    between atoms: _359  and  _361
REMARK  132  A    between atoms: _361  and  _362
REMARK  133  A    between atoms: _361  and  _364
REMARK  134  A    between atoms: _364  and  _365
REMARK  135  A    between atoms: _368  and  _370
REMARK  136  A    between atoms: _370  and  _371
REMARK  137  A    between atoms: _370  and  _373
REMARK  138  A    between atoms: _373  and  _374
REMARK  139  A    between atoms: _374  and  _375
REMARK  140  A    between atoms: _378  and  _380
REMARK  141  A    between atoms: _380  and  _381
REMARK  142  A    between atoms: _380  and  _383
REMARK  143  A    between atoms: _383  and  _384
REMARK  144  A    between atoms: _384  and  _385
REMARK  145  A    between atoms: _385  and  _386
REMARK  146  A    between atoms: _395  and  _397
REMARK  147  A    between atoms: _397  and  _398
REMARK  148  A    between atoms: _400  and  _402
REMARK  149  A    between atoms: _402  and  _403
REMARK  150  A    between atoms: _402  and  _405
REMARK  151  A    between atoms: _405  and  _406
REMARK                            x       y       z     vdW  Elec       q    Type
REMARK                         _______ _______ _______ _____ _____    ______ ____
ROOT
ATOM      1  C   THR A   1      33.212  71.766   2.820  0.00  0.00    +0.241 C 
ATOM      2  O   THR A   1      32.670  71.603   3.906  0.00  0.00    -0.274 OA
ATOM      3  N   ALA A   2      34.323  72.494   2.657  0.00  0.00    -0.298 N 
ATOM      4  H   ALA A   2      34.734  72.610   1.709  0.00  0.00    +0.150 HD
ENDROOT
BRANCH   3   5
ATOM      5  CA  ALA A   2      34.964  73.132   3.823  0.00  0.00    +0.137 C 
ATOM      6  CB  ALA A   2      36.474  72.973   3.761  0.00  0.00    +0.030 C 
BRANCH   5   7
ATOM      7  C   ALA A   2      34.598  74.612   3.935  0.00  0.00    +0.227 C 
ATOM      8  O   ALA A   2      34.078  75.235   2.996  0.00  0.00    -0.286 OA
ENDBRANCH   5   7
ENDBRANCH   3   5
BRANCH   1   9
ATOM      9  CA  THR A   1      32.579  71.166   1.574  0.00  0.00    +0.172 C 
BRANCH   9  10
ATOM     10  N   THR A   1      33.489  71.046   0.439  0.00  0.00    -0.236 NA
ATOM     11  H   THR A   1      34.270  70.361   0.477  0.00  0.00    +0.142 HD
ENDBRANCH   9  10
BRANCH   9  12
ATOM     12  CB  THR A   1      31.945  69.810   1.916  0.00  0.00    +0.135 C 
ATOM     13  CG2 THR A   1      31.152  69.292   0.719  0.00  0.00    +0.034 C 
BRANCH  12  14
ATOM     14  OG1 THR A   1      32.979  68.850   2.177  0.00  0.00    -0.383 OA
ATOM     15  HG1 THR A   1      33.550  68.755   1.374  0.00  0.00    +0.210 HD
ENDBRANCH  12  14
ENDBRANCH   9  12
ENDBRANCH   1   9
TORSDOF 6
REMARK  Name = ../refined-set-2016/3dx2/3dx2_pocket.pdb
REMARK  151 active torsions:
REMARK  status: ('A' for Active; 'I' for Inactive)
REMARK    1  A    between atoms: _1  and  _3
REMARK    2  A    between atoms: _14  and  _17
REMARK    3  A    between atoms: _17  and  _18
REMARK    4  A    between atoms: _25  and  _26
REMARK    5  A    between atoms: _33  and  _34
REMARK    6  A    between atoms: _39  and  _41
REMARK    7  A    between atoms: _41  and  _42
REMARK    8  A    between atoms: _44  and  _46
REMARK    9  A    between atoms: _46  and  _47
REMARK   10  A    between atoms: _46  and  _49
REMARK   11  A    between atoms: _49  and  _50
REMARK   12  A    between atoms: _60  and  _62
REMARK   13  A    between atoms: _62  and  _63
REMARK   14  A    between atoms: _62  and  _65
REMARK   15  A    between atoms: _65  and  _66
REMARK   16  A    between atoms: _69  and  _71
REMARK   17  A    between atoms: _71  and  _72
REMARK   18  A    between atoms: _71  and  _74
REMARK   19  A    between atoms: _74  and  _75
REMARK   20  A    between atoms: _80  and  _81
REMARK   21  A    between atoms: _83  and  _85
REMARK   22  A    between atoms: _85  and  _86
REMARK   23  A    between atoms: _85  and  _88
REMARK   24  A    between atoms: _88  and  _89
REMARK   25  A    between atoms: _89  and  _90
REMARK   26  A    between atoms: _93  and  _95
REMARK   27  A    between atoms: _95  and  _96
REMARK   28  A    between atoms: _95  and  _98
REMARK   29  A    between atoms: _98  and  _99
REMARK   30  A    between atoms: _99  and  _100
REMARK   31  A    between atoms: _102  and  _104
REMARK   32  A    between atoms: _104  and  _105
REMARK   33  A    between atoms: _104  and  _107
REMARK   34  A    between atoms: _107  and  _108
REMARK   35  A    between atoms: _111  and  _113
REMARK   36  A    between atoms: _113  and  _114
REMARK   37  A    between atoms: _113  and  _116
REMARK   38  A    between atoms: _116  and  _117
REMARK   39  A    between atoms: _117  and  _119
REMARK   40  A    between atoms: _119  and  ZN_409
REMARK   41  A    between atoms: _121  and  _122
REMARK   42  A    between atoms: _127  and  _129
REMARK   43  A    between atoms: _129  and  _130
REMARK   44  A    between atoms: _129  and  _132
REMARK   45  A    between atoms: _132  and  _133
REMARK   46  A    between atoms: _139  and  _141
REMARK   47  A    between atoms: _141  and  _142
REMARK   48  A    between atoms: _141  and  _144
REMARK   49  A    between atoms: _144  and  _145
REMARK   50  A    between atoms: _145  and  _146
REMARK   51  A    between atoms: _146  and  _147
REMARK   52  A    between atoms: _156  and  _158
REMARK   53  A    between atoms: _158  and  _159
REMARK   54  A    between atoms: _158  and  _161
REMARK   55  A    between atoms: _161  and  _162
REMARK   56  A    between atoms: _167  and  _168
REMARK   57  A    between atoms: _170  and  _172
REMARK   58  A    between atoms: _172  and  _173
REMARK   59  A    between atoms: _172  and  _175
REMARK   60  A    between atoms: _175  and  _176
REMARK   61  A    between atoms: _178  and  _180
REMARK   62  A    between atoms: _180  and  _181
REMARK   63  A    between atoms: _180  and  _183
REMARK   64  A    between atoms: _183  and  _184
REMARK   65  A    between atoms: _189  and  _190
REMARK   66  A    between atoms: _192  and  _194
REMARK   67  A    between atoms: _194  and  _195
REMARK   68  A    between atoms: _194  and  _197
REMARK   69  A    between atoms: _197  and  _198
REMARK   70  A    between atoms: _201  and  _203
REMARK   71  A    between atoms: _203  and  _204
REMARK   72  A    between atoms: _203  and  _206
REMARK   73  A    between atoms: _206  and  _207
REMARK   74  A    between atoms: _210  and  _212
REMARK   75  A    between atoms: _212  and  _213
REMARK   76  A    between atoms: _212  and  _215
REMARK   77  A    between atoms: _215  and  _216
REMARK   78  A    between atoms: _219  and  _221
REMARK   79  A    between atoms: _221  and  _222
REMARK   80  A    between atoms: _221  and  _224
REMARK   81  A    between atoms: _224  and  _225
REMARK   82  A    between atoms: _231  and  _233
REMARK   83  A    between atoms: _233  and  _234
REMARK   84  A    between atoms: _233  and  _236
REMARK   85  A    between atoms: _236  and  _237
REMARK   86  A    between atoms: _242  and  _243
REMARK   87  A    between atoms: _245  and  _247
REMARK   88  A    between atoms: _247  and  _248
REMARK   89  A    between atoms: _247  and  _250
REMARK   90  A    between atoms: _250  and  _251
REMARK   91  A    between atoms: _254  and  _256
REMARK   92  A    between atoms: _256  and  _257
REMARK   93  A    between atoms: _256  and  _259
REMARK   94  A    between atoms: _259  and  _260
REMARK   95  A    between atoms: _270  and  _272
REMARK   96  A    between atoms: _272  and  _273
REMARK   97  A    between atoms: _272  and  _275
REMARK   98  A    between atoms: _275  and  _276
REMARK   99  A    between atoms: _281  and  _283
REMARK  100  A    between atoms: _283  and  _284
REMARK  101  A    between atoms: _283  and  _286
REMARK  102  A    between atoms: _286  and  _287
REMARK  103  A    between atoms: _291  and  ZN_409
REMARK  104  A    between atoms: _292  and  _294
REMARK  105  A    between atoms: _294  and  _295
REMARK  106  A    between atoms: _294  and  _297
REMARK  107  A    between atoms: _297  and  _298
REMARK  108  A    between atoms: _301  and  _303
REMARK  109  A    between atoms: _303  and  _304
REMARK  110  A    between atoms: _306  and  _308
REMARK  111  A    between atoms: _308  and  _309
REMARK  112  A    between atoms: _308  and  _311
REMARK  113  A    between atoms: _311  and  _312
REMARK  114  A    between atoms: _315  and  _317
REMARK  115  A    between atoms: _317  and  _318
REMARK  116  A    between atoms: _317  and  _320
REMARK  117  A    between atoms: _320  and  _321
REMARK  118  A    between atoms: _324  and  _326
REMARK  119  A    between atoms: _326  and  _327
REMARK  120  A    between atoms: _330  and  _332
REMARK  121  A    between atoms: _332  and  _333
REMARK  122  A    between atoms: _336  and  _338
REMARK  123  A    between atoms: _338  and  _339
REMARK  124  A    between atoms: _338  and  _341
REMARK  125  A    between atoms: _341  and  _342
REMARK  126  A    between atoms: _347  and  _348
REMARK  127  A    between atoms: _350  and  _352
REMARK  128  A    between atoms: _352  and  _353
REMARK  129  A    between atoms: _352  and  _355
REMARK  130  A    between atoms: _355  and  _356
REMARK  131  A    between atoms: _359  and  _361
REMARK  132  A    between atoms: _361  and  _362
REMARK  133  A    between atoms: _361  and  _364
REMARK  134  A    between atoms: _364  and  _365
REMARK  135  A    between atoms: _368  and  _370
REMARK  136  A    between atoms: _370  and  _371
REMARK  137  A    between atoms: _370  and  _373
REMARK  138  A    between atoms: _373  and  _374
REMARK  139  A    between atoms: _374  and  _375
REMARK  140  A    between atoms: _378  and  _380
REMARK  141  A    between atoms: _380  and  _381
REMARK  142  A    between atoms: _380  and  _383
REMARK  143  A    between atoms: _383  and  _384
REMARK  144  A    between atoms: _384  and  _385
REMARK  145  A    between atoms: _385  and  _386
REMARK  146  A    between atoms: _395  and  _397
REMARK  147  A    between atoms: _397  and  _398
REMARK  148  A    between atoms: _400  and  _402
REMARK  149  A    between atoms: _402  and  _403
REMARK  150  A    between atoms: _402  and  _405
REMARK  151  A    between atoms: _405  and  _406
REMARK                            x       y       z     vdW  Elec       q    Type
REMARK                         _______ _______ _______ _____ _____    ______ ____
ROOT
ATOM      1  CA  TYR A   2      26.621  69.067  -0.095  0.00  0.00    +0.153 C 
ENDROOT
BRANCH   1   3
ATOM      2  C   ALA A   1      27.658  71.192  -0.753  0.00  0.00    +0.238 C 
ATOM      3  N   TYR A   2      26.834  70.513   0.050  0.00  0.00    -0.297 N 
ATOM      4  H   TYR A   2      26.328  71.024   0.801  0.00  0.00    +0.150 HD
ATOM      5  O   ALA A   1      28.329  70.662  -1.631  0.00  0.00    -0.274 OA
BRANCH   2   6
ATOM      6  CA  ALA A   1      27.784  72.701  -0.504  0.00  0.00    +0.145 C 
ATOM      7  CB  ALA A   1      28.922  72.964   0.456  0.00  0.00    +0.028 C 
BRANCH   6   8
ATOM      8  N   ALA A   1      26.554  73.300   0.010  0.00  0.00    -0.238 NA
ATOM      9  H   ALA A   1      26.548  73.756   0.945  0.00  0.00    +0.142 HD
ENDBRANCH   6   8
ENDBRANCH   2   6
ENDBRANCH   1   3
BRANCH   1  10
ATOM     10  C   TYR A   2      25.462  68.731  -1.008  0.00  0.00    +0.241 C 
ATOM     11  N   LEU A   3      24.312  69.363  -0.758  0.00  0.00    -0.298 N 
ATOM     12  H   LEU A   3      24.318  70.173  -0.106  0.00  0.00    +0.150 HD
ATOM     13  O   TYR A   2      25.604  67.914  -1.914  0.00  0.00    -0.273 OA
BRANCH  11  14
ATOM     14  CA  LEU A   3      23.042  68.959  -1.367  0.00  0.00    +0.137 C 
BRANCH  14  15
ATOM     15  C   LEU A   3      22.711  69.724  -2.623  0.00  0.00    +0.227 C 
ATOM     16  O   LEU A   3      22.893  70.952  -2.678  0.00  0.00    -0.286 OA
ENDBRANCH  14  15
BRANCH  14  17
ATOM     17  CB  LEU A   3      21.893  69.212  -0.375  0.00  0.00    +0.028 C 
BRANCH  17  18
ATOM     18  CG  LEU A   3      22.032  68.531   0.987  0.00  0.00    +0.002 C 
ATOM     19  CD2 LEU A   3      20.738  68.713   1.813  0.00  0.00    +0.000 C 
ATOM     20  CD1 LEU A   3      22.430  67.044   0.893  0.00  0.00    +0.000 C 
ENDBRANCH  17  18
ENDBRANCH  14  17
ENDBRANCH  11  14
ENDBRANCH   1  10
BRANCH   1  21
ATOM     21  CB  TYR A   2      26.356  68.401   1.257  0.00  0.00    +0.055 C 
BRANCH  21  22
ATOM     22  CG  TYR A   2      27.396  68.667   2.324  0.00  0.00    -0.020 A 
ATOM     23  CD2 TYR A   2      27.285  69.777   3.173  0.00  0.00    -0.001 A 
ATOM     24  CE2 TYR A   2      28.218  69.994   4.195  0.00  0.00    +0.036 A 
ATOM     25  CZ  TYR A   2      29.278  69.124   4.329  0.00  0.00    +0.134 A 
ATOM     26  CE1 TYR A   2      29.415  68.018   3.510  0.00  0.00    +0.036 A 
ATOM     27  CD1 TYR A   2      28.472  67.784   2.516  0.00  0.00    -0.001 A 
BRANCH  25  28
ATOM     28  OH  TYR A   2      30.158  69.376   5.351  0.00  0.00    -0.506 OA
ATOM     29  HH  TYR A   2      30.145  68.620   5.990  0.00  0.00    +0.292 HD
ENDBRANCH  25  28
ENDBRANCH  21  22
ENDBRANCH   1  21
TORSDOF 11
REMARK  Name = ../refined-set-2016/3dx2/3dx2_pocket.pdb
REMARK  151 active torsions:
REMARK  status: ('A' for Active; 'I' for Inactive)
REMARK    1  A    between atoms: _1  and  _3
REMARK    2  A    between atoms: _14  and  _17
REMARK    3  A    between atoms: _17  and  _18
REMARK    4  A    between atoms: _25  and  _26
REMARK    5  A    between atoms: _33  and  _34
REMARK    6  A    between atoms: _39  and  _41
REMARK    7  A    between atoms: _41  and  _42
REMARK    8  A    between atoms: _44  and  _46
REMARK    9  A    between atoms: _46  and  _47
REMARK   10  A    between atoms: _46  and  _49
REMARK   11  A    between atoms: _49  and  _50
REMARK   12  A    between atoms: _60  and  _62
REMARK   13  A    between atoms: _62  and  _63
REMARK   14  A    between atoms: _62  and  _65
REMARK   15  A    between atoms: _65  and  _66
REMARK   16  A    between atoms: _69  and  _71
REMARK   17  A    between atoms: _71  and  _72
REMARK   18  A    between atoms: _71  and  _74
REMARK   19  A    between atoms: _74  and  _75
REMARK   20  A    between atoms: _80  and  _81
REMARK   21  A    between atoms: _83  and  _85
REMARK   22  A    between atoms: _85  and  _86
REMARK   23  A    between atoms: _85  and  _88
REMARK   24  A    between atoms: _88  and  _89
REMARK   25  A    between atoms: _89  and  _90
REMARK   26  A    between atoms: _93  and  _95
REMARK   27  A    between atoms: _95  and  _96
REMARK   28  A    between atoms: _95  and  _98
REMARK   29  A    between atoms: _98  and  _99
REMARK   30  A    between atoms: _99  and  _100
REMARK   31  A    between atoms: _102  and  _104
REMARK   32  A    between atoms: _104  and  _105
REMARK   33  A    between atoms: _104  and  _107
REMARK   34  A    between atoms: _107  and  _108
REMARK   35  A    between atoms: _111  and  _113
REMARK   36  A    between atoms: _113  and  _114
REMARK   37  A    between atoms: _113  and  _116
REMARK   38  A    between atoms: _116  and  _117
REMARK   39  A    between atoms: _117  and  _119
REMARK   40  A    between atoms: _119  and  ZN_409
REMARK   41  A    between atoms: _121  and  _122
REMARK   42  A    between atoms: _127  and  _129
REMARK   43  A    between atoms: _129  and  _130
REMARK   44  A    between atoms: _129  and  _132
REMARK   45  A    between atoms: _132  and  _133
REMARK   46  A    between atoms: _139  and  _141
REMARK   47  A    between atoms: _141  and  _142
REMARK   48  A    between atoms: _141  and  _144
REMARK   49  A    between atoms: _144  and  _145
REMARK   50  A    between atoms: _145  and  _146
REMARK   51  A    between atoms: _146  and  _147
REMARK   52  A    between atoms: _156  and  _158
REMARK   53  A    between atoms: _158  and  _159
REMARK   54  A    between atoms: _158  and  _161
REMARK   55  A    between atoms: _161  and  _162
REMARK   56  A    between atoms: _167  and  _168
REMARK   57  A    between atoms: _170  and  _172
REMARK   58  A    between atoms: _172  and  _173
REMARK   59  A    between atoms: _172  and  _175
REMARK   60  A    between atoms: _175  and  _176
REMARK   61  A    between atoms: _178  and  _180
REMARK   62  A    between atoms: _180  and  _181
REMARK   63  A    between atoms: _180  and  _183
REMARK   64  A    between atoms: _183  and  _184
REMARK   65  A    between atoms: _189  and  _190
REMARK   66  A    between atoms: _192  and  _194
REMARK   67  A    between atoms: _194  and  _195
REMARK   68  A    between atoms: _194  and  _197
REMARK   69  A    between atoms: _197  and  _198
REMARK   70  A    between atoms: _201  and  _203
REMARK   71  A    between atoms: _203  and  _204
REMARK   72  A    between atoms: _203  and  _206
REMARK   73  A    between atoms: _206  and  _207
REMARK   74  A    between atoms: _210  and  _212
REMARK   75  A    between atoms: _212  and  _213
REMARK   76  A    between atoms: _212  and  _215
REMARK   77  A    between atoms: _215  and  _216
REMARK   78  A    between atoms: _219  and  _221
REMARK   79  A    between atoms: _221  and  _222
REMARK   80  A    between atoms: _221  and  _224
REMARK   81  A    between atoms: _224  and  _225
REMARK   82  A    between atoms: _231  and  _233
REMARK   83  A    between atoms: _233  and  _234
REMARK   84  A    between atoms: _233  and  _236
REMARK   85  A    between atoms: _236  and  _237
REMARK   86  A    between atoms: _242  and  _243
REMARK   87  A    between atoms: _245  and  _247
REMARK   88  A    between atoms: _247  and  _248
REMARK   89  A    between atoms: _247  and  _250
REMARK   90  A    between atoms: _250  and  _251
REMARK   91  A    between atoms: _254  and  _256
REMARK   92  A    between atoms: _256  and  _257
REMARK   93  A    between atoms: _256  and  _259
REMARK   94  A    between atoms: _259  and  _260
REMARK   95  A    between atoms: _270  and  _272
REMARK   96  A    between atoms: _272  and  _273
REMARK   97  A    between atoms: _272  and  _275
REMARK   98  A    between atoms: _275  and  _276
REMARK   99  A    between atoms: _281  and  _283
REMARK  100  A    between atoms: _283  and  _284
REMARK  101  A    between atoms: _283  and  _286
REMARK  102  A    between atoms: _286  and  _287
REMARK  103  A    between atoms: _291  and  ZN_409
REMARK  104  A    between atoms: _292  and  _294
REMARK  105  A    between atoms: _294  and  _295
REMARK  106  A    between atoms: _294  and  _297
REMARK  107  A    between atoms: _297  and  _298
REMARK  108  A    between atoms: _301  and  _303
REMARK  109  A    between atoms: _303  and  _304
REMARK  110  A    between atoms: _306  and  _308
REMARK  111  A    between atoms: _308  and  _309
REMARK  112  A    between atoms: _308  and  _311
REMARK  113  A    between atoms: _311  and  _312
REMARK  114  A    between atoms: _315  and  _317
REMARK  115  A    between atoms: _317  and  _318
REMARK  116  A    between atoms: _317  and  _320
REMARK  117  A    between atoms: _320  and  _321
REMARK  118  A    between atoms: _324  and  _326
REMARK  119  A    between atoms: _326  and  _327
REMARK  120  A    between atoms: _330  and  _332
REMARK  121  A    between atoms: _332  and  _333
REMARK  122  A    between atoms: _336  and  _338
REMARK  123  A    between atoms: _338  and  _339
REMARK  124  A    between atoms: _338  and  _341
REMARK  125  A    between atoms: _341  and  _342
REMARK  126  A    between atoms: _347  and  _348
REMARK  127  A    between atoms: _350  and  _352
REMARK  128  A    between atoms: _352  and  _353
REMARK  129  A    between atoms: _352  and  _355
REMARK  130  A    between atoms: _355  and  _356
REMARK  131  A    between atoms: _359  and  _361
REMARK  132  A    between atoms: _361  and  _362
REMARK  133  A    between atoms: _361  and  _364
REMARK  134  A    between atoms: _364  and  _365
REMARK  135  A    between atoms: _368  and  _370
REMARK  136  A    between atoms: _370  and  _371
REMARK  137  A    between atoms: _370  and  _373
REMARK  138  A    between atoms: _373  and  _374
REMARK  139  A    between atoms: _374  and  _375
REMARK  140  A    between atoms: _378  and  _380
REMARK  141  A    between atoms: _380  and  _381
REMARK  142  A    between atoms: _380  and  _383
REMARK  143  A    between atoms: _383  and  _384
REMARK  144  A    between atoms: _384  and  _385
REMARK  145  A    between atoms: _385  and  _386
REMARK  146  A    between atoms: _395  and  _397
REMARK  147  A    between atoms: _397  and  _398
REMARK  148  A    between atoms: _400  and  _402
REMARK  149  A    between atoms: _402  and  _403
REMARK  150  A    between atoms: _402  and  _405
REMARK  151  A    between atoms: _405  and  _406
REMARK                            x       y       z     vdW  Elec       q    Type
REMARK                         _______ _______ _______ _____ _____    ______ ____
ROOT
ATOM      1  CA  ARG A   3      24.917  69.370   7.608  0.00  0.00    +0.149 C 
ENDROOT
BRANCH   1   4
ATOM      2  C   GLU A   2      22.838  70.591   7.753  0.00  0.00    +0.241 C 
ATOM      3  O   GLU A   2      22.308  69.664   8.377  0.00  0.00    -0.273 OA
ATOM      4  N   ARG A   3      24.091  70.526   7.299  0.00  0.00    -0.297 N 
ATOM      5  H   ARG A   3      24.477  71.302   6.724  0.00  0.00    +0.150 HD
BRANCH   2   6
ATOM      6  CA  GLU A   2      22.064  71.878   7.463  0.00  0.00    +0.149 C 
BRANCH   6   8
ATOM      7  C   ASP A   1      22.193  72.004   5.042  0.00  0.00    +0.239 C 
ATOM      8  N   GLU A   2      22.429  72.569   6.222  0.00  0.00    -0.297 N 
ATOM      9  H   GLU A   2      22.875  73.507   6.265  0.00  0.00    +0.150 HD
ATOM     10  O   ASP A   1      21.925  70.803   4.916  0.00  0.00    -0.274 OA
BRANCH   7  11
ATOM     11  CA  ASP A   1      22.257  72.936   3.837  0.00  0.00    +0.156 C 
BRANCH  11  12
ATOM     12  N   ASP A   1      23.112  74.108   4.094  0.00  0.00    -0.238 NA
ATOM     13  H   ASP A   1      24.142  73.982   4.160  0.00  0.00    +0.142 HD
ENDBRANCH  11  12
BRANCH  11  14
ATOM     14  CB  ASP A   1      22.663  72.203   2.543  0.00  0.00    +0.140 C 
BRANCH  14  15
ATOM     15  CG  ASP A   1      24.146  71.843   2.493  0.00  0.00    +0.367 C 
ATOM     16  OD2 ASP A   1      24.915  72.160   3.437  0.00  0.00    -0.246 OA
ATOM     17  OD1 ASP A   1      24.494  71.224   1.462  0.00  0.00    -0.246 OA
ENDBRANCH  14  15
ENDBRANCH  11  14
ENDBRANCH   7  11
ENDBRANCH   6   8
BRANCH   6  18
ATOM     18  CB  GLU A   2      20.551  71.576   7.507  0.00  0.00    +0.041 C 
BRANCH  18  19
ATOM     19  CG  GLU A   2      19.672  72.769   7.206  0.00  0.00    +0.116 C 
BRANCH  19  20
ATOM     20  CD  GLU A   2      18.544  72.893   8.190  0.00  0.00    +0.365 C 
ATOM     21  OE2 GLU A   2      18.773  73.465   9.287  0.00  0.00    -0.246 OA
ATOM     22  OE1 GLU A   2      17.444  72.403   7.871  0.00  0.00    -0.246 OA
ENDBRANCH  19  20
ENDBRANCH  18  19
ENDBRANCH   6  18
ENDBRANCH   2   6
ENDBRANCH   1   4
BRANCH   1  23
ATOM     23  C   ARG A   3      26.100  69.738   8.475  0.00  0.00    +0.241 C 
ATOM     24  N   GLY A   4      26.154  70.983   8.939  0.00  0.00    -0.295 N 
ATOM     25  H   GLY A   4      25.472  71.684   8.586  0.00  0.00    +0.150 HD
ATOM     26  O   ARG A   3      26.950  68.883   8.729  0.00  0.00    -0.273 OA
BRANCH  24  27
ATOM     27  CA  GLY A   4      27.149  71.394   9.935  0.00  0.00    +0.176 C 
BRANCH  27  28
ATOM     28  C   GLY A   4      28.185  72.372   9.421  0.00  0.00    +0.243 C 
ATOM     29  O   GLY A   4      29.002  72.887  10.211  0.00  0.00    -0.273 OA
ATOM     30  N   LEU A   5      28.182  72.630   8.110  0.00  0.00    -0.298 N 
ATOM     31  H   LEU A   5      27.469  72.195   7.491  0.00  0.00    +0.150 HD
BRANCH  30  32
ATOM     32  CA  LEU A   5      29.190  73.529   7.556  0.00  0.00    +0.137 C 
BRANCH  32  33
ATOM     33  C   LEU A   5      28.952  74.975   7.989  0.00  0.00    +0.227 C 
ATOM     34  O   LEU A   5      29.910  75.736   8.168  0.00  0.00    -0.286 OA
ENDBRANCH  32  33
BRANCH  32  35
ATOM     35  CB  LEU A   5      29.178  73.439   6.030  0.00  0.00    +0.028 C 
BRANCH  35  36
ATOM     36  CG  LEU A   5      30.060  74.417   5.252  0.00  0.00    +0.002 C 
ATOM     37  CD2 LEU A   5      31.525  74.331   5.673  0.00  0.00    +0.000 C 
ATOM     38  CD1 LEU A   5      29.916  74.192   3.770  0.00  0.00    +0.000 C 
ENDBRANCH  35  36
ENDBRANCH  32  35
ENDBRANCH  30  32
ENDBRANCH  27  28
ENDBRANCH  24  27
ENDBRANCH   1  23
BRANCH   1  39
ATOM     39  CB  ARG A   3      25.388  68.686   6.325  0.00  0.00    +0.033 C 
BRANCH  39  40
ATOM     40  CG  ARG A   3      24.243  68.094   5.447  0.00  0.00    +0.045 C 
BRANCH  40  41
ATOM     41  CD  ARG A   3      23.393  67.120   6.254  0.00  0.00    +0.174 C 
BRANCH  41  42
ATOM     42  NE  ARG A   3      22.368  66.397   5.501  0.00  0.00    -0.265 N 
ATOM     43  HE  ARG A   3      22.582  65.423   5.205  0.00  0.00    +0.259 HD
ATOM     44  CZ  ARG A   3      21.176  66.900   5.167  0.00  0.00    +0.342 C 
ATOM     45  NH2 ARG A   3      20.886  68.188   5.414  0.00  0.00    -0.292 N 
ATOM     46 HH21 ARG A   3      21.592  68.802   5.869  0.00  0.00    +0.255 HD
ATOM     47 HH22 ARG A   3      19.956  68.571   5.151  0.00  0.00    +0.255 HD
ATOM     48  NH1 ARG A   3      20.286  66.119   4.562  0.00  0.00    -0.292 N 
ATOM     49 HH11 ARG A   3      20.521  65.128   4.353  0.00  0.00    +0.255 HD
ATOM     50 HH12 ARG A   3      19.355  66.500   4.297  0.00  0.00    +0.255 HD
ENDBRANCH  41  42
ENDBRANCH  40  41
ENDBRANCH  39  40
ENDBRANCH   1  39
TORSDOF 21
REMARK  Name = ../refined-set-2016/3dx2/3dx2_pocket.pdb
REMARK  151 active torsions:
REMARK  status: ('A' for Active; 'I' for Inactive)
REMARK    1  A    between atoms: _1  and  _3
REMARK    2  A    between atoms: _14  and  _17
REMARK    3  A    between atoms: _17  and  _18
REMARK    4  A    between atoms: _25  and  _26
REMARK    5  A    between atoms: _33  and  _34
REMARK    6  A    between atoms: _39  and  _41
REMARK    7  A    between atoms: _41  and  _42
REMARK    8  A    between atoms: _44  and  _46
REMARK    9  A    between atoms: _46  and  _47
REMARK   10  A    between atoms: _46  and  _49
REMARK   11  A    between atoms: _49  and  _50
REMARK   12  A    between atoms: _60  and  _62
REMARK   13  A    between atoms: _62  and  _63
REMARK   14  A    between atoms: _62  and  _65
REMARK   15  A    between atoms: _65  and  _66
REMARK   16  A    between atoms: _69  and  _71
REMARK   17  A    between atoms: _71  and  _72
REMARK   18  A    between atoms: _71  and  _74
REMARK   19  A    between atoms: _74  and  _75
REMARK   20  A    between atoms: _80  and  _81
REMARK   21  A    between atoms: _83  and  _85
REMARK   22  A    between atoms: _85  and  _86
REMARK   23  A    between atoms: _85  and  _88
REMARK   24  A    between atoms: _88  and  _89
REMARK   25  A    between atoms: _89  and  _90
REMARK   26  A    between atoms: _93  and  _95
REMARK   27  A    between atoms: _95  and  _96
REMARK   28  A    between atoms: _95  and  _98
REMARK   29  A    between atoms: _98  and  _99
REMARK   30  A    between atoms: _99  and  _100
REMARK   31  A    between atoms: _102  and  _104
REMARK   32  A    between atoms: _104  and  _105
REMARK   33  A    between atoms: _104  and  _107
REMARK   34  A    between atoms: _107  and  _108
REMARK   35  A    between atoms: _111  and  _113
REMARK   36  A    between atoms: _113  and  _114
REMARK   37  A    between atoms: _113  and  _116
REMARK   38  A    between atoms: _116  and  _117
REMARK   39  A    between atoms: _117  and  _119
REMARK   40  A    between atoms: _119  and  ZN_409
REMARK   41  A    between atoms: _121  and  _122
REMARK   42  A    between atoms: _127  and  _129
REMARK   43  A    between atoms: _129  and  _130
REMARK   44  A    between atoms: _129  and  _132
REMARK   45  A    between atoms: _132  and  _133
REMARK   46  A    between atoms: _139  and  _141
REMARK   47  A    between atoms: _141  and  _142
REMARK   48  A    between atoms: _141  and  _144
REMARK   49  A    between atoms: _144  and  _145
REMARK   50  A    between atoms: _145  and  _146
REMARK   51  A    between atoms: _146  and  _147
REMARK   52  A    between atoms: _156  and  _158
REMARK   53  A    between atoms: _158  and  _159
REMARK   54  A    between atoms: _158  and  _161
REMARK   55  A    between atoms: _161  and  _162
REMARK   56  A    between atoms: _167  and  _168
REMARK   57  A    between atoms: _170  and  _172
REMARK   58  A    between atoms: _172  and  _173
REMARK   59  A    between atoms: _172  and  _175
REMARK   60  A    between atoms: _175  and  _176
REMARK   61  A    between atoms: _178  and  _180
REMARK   62  A    between atoms: _180  and  _181
REMARK   63  A    between atoms: _180  and  _183
REMARK   64  A    between atoms: _183  and  _184
REMARK   65  A    between atoms: _189  and  _190
REMARK   66  A    between atoms: _192  and  _194
REMARK   67  A    between atoms: _194  and  _195
REMARK   68  A    between atoms: _194  and  _197
REMARK   69  A    between atoms: _197  and  _198
REMARK   70  A    between atoms: _201  and  _203
REMARK   71  A    between atoms: _203  and  _204
REMARK   72  A    between atoms: _203  and  _206
REMARK   73  A    between atoms: _206  and  _207
REMARK   74  A    between atoms: _210  and  _212
REMARK   75  A    between atoms: _212  and  _213
REMARK   76  A    between atoms: _212  and  _215
REMARK   77  A    between atoms: _215  and  _216
REMARK   78  A    between atoms: _219  and  _221
REMARK   79  A    between atoms: _221  and  _222
REMARK   80  A    between atoms: _221  and  _224
REMARK   81  A    between atoms: _224  and  _225
REMARK   82  A    between atoms: _231  and  _233
REMARK   83  A    between atoms: _233  and  _234
REMARK   84  A    between atoms: _233  and  _236
REMARK   85  A    between atoms: _236  and  _237
REMARK   86  A    between atoms: _242  and  _243
REMARK   87  A    between atoms: _245  and  _247
REMARK   88  A    between atoms: _247  and  _248
REMARK   89  A    between atoms: _247  and  _250
REMARK   90  A    between atoms: _250  and  _251
REMARK   91  A    between atoms: _254  and  _256
REMARK   92  A    between atoms: _256  and  _257
REMARK   93  A    between atoms: _256  and  _259
REMARK   94  A    between atoms: _259  and  _260
REMARK   95  A    between atoms: _270  and  _272
REMARK   96  A    between atoms: _272  and  _273
REMARK   97  A    between atoms: _272  and  _275
REMARK   98  A    between atoms: _275  and  _276
REMARK   99  A    between atoms: _281  and  _283
REMARK  100  A    between atoms: _283  and  _284
REMARK  101  A    between atoms: _283  and  _286
REMARK  102  A    between atoms: _286  and  _287
REMARK  103  A    between atoms: _291  and  ZN_409
REMARK  104  A    between atoms: _292  and  _294
REMARK  105  A    between atoms: _294  and  _295
REMARK  106  A    between atoms: _294  and  _297
REMARK  107  A    between atoms: _297  and  _298
REMARK  108  A    between atoms: _301  and  _303
REMARK  109  A    between atoms: _303  and  _304
REMARK  110  A    between atoms: _306  and  _308
REMARK  111  A    between atoms: _308  and  _309
REMARK  112  A    between atoms: _308  and  _311
REMARK  113  A    between atoms: _311  and  _312
REMARK  114  A    between atoms: _315  and  _317
REMARK  115  A    between atoms: _317  and  _318
REMARK  116  A    between atoms: _317  and  _320
REMARK  117  A    between atoms: _320  and  _321
REMARK  118  A    between atoms: _324  and  _326
REMARK  119  A    between atoms: _326  and  _327
REMARK  120  A    between atoms: _330  and  _332
REMARK  121  A    between atoms: _332  and  _333
REMARK  122  A    between atoms: _336  and  _338
REMARK  123  A    between atoms: _338  and  _339
REMARK  124  A    between atoms: _338  and  _341
REMARK  125  A    between atoms: _341  and  _342
REMARK  126  A    between atoms: _347  and  _348
REMARK  127  A    between atoms: _350  and  _352
REMARK  128  A    between atoms: _352  and  _353
REMARK  129  A    between atoms: _352  and  _355
REMARK  130  A    between atoms: _355  and  _356
REMARK  131  A    between atoms: _359  and  _361
REMARK  132  A    between atoms: _361  and  _362
REMARK  133  A    between atoms: _361  and  _364
REMARK  134  A    between atoms: _364  and  _365
REMARK  135  A    between atoms: _368  and  _370
REMARK  136  A    between atoms: _370  and  _371
REMARK  137  A    between atoms: _370  and  _373
REMARK  138  A    between atoms: _373  and  _374
REMARK  139  A    between atoms: _374  and  _375
REMARK  140  A    between atoms: _378  and  _380
REMARK  141  A    between atoms: _380  and  _381
REMARK  142  A    between atoms: _380  and  _383
REMARK  143  A    between atoms: _383  and  _384
REMARK  144  A    between atoms: _384  and  _385
REMARK  145  A    between atoms: _385  and  _386
REMARK  146  A    between atoms: _395  and  _397
REMARK  147  A    between atoms: _397  and  _398
REMARK  148  A    between atoms: _400  and  _402
REMARK  149  A    between atoms: _402  and  _403
REMARK  150  A    between atoms: _402  and  _405
REMARK  151  A    between atoms: _405  and  _406
REMARK                            x       y       z     vdW  Elec       q    Type
REMARK                         _______ _______ _______ _____ _____    ______ ____
ROOT
ATOM      1  O   HOH     1      34.448  69.912  13.417  0.00  0.00    +0.000 OA
ENDROOT
TORSDOF 0
REMARK  Name = ../refined-set-2016/3dx2/3dx2_pocket.pdb
REMARK  151 active torsions:
REMARK  status: ('A' for Active; 'I' for Inactive)
REMARK    1  A    between atoms: _1  and  _3
REMARK    2  A    between atoms: _14  and  _17
REMARK    3  A    between atoms: _17  and  _18
REMARK    4  A    between atoms: _25  and  _26
REMARK    5  A    between atoms: _33  and  _34
REMARK    6  A    between atoms: _39  and  _41
REMARK    7  A    between atoms: _41  and  _42
REMARK    8  A    between atoms: _44  and  _46
REMARK    9  A    between atoms: _46  and  _47
REMARK   10  A    between atoms: _46  and  _49
REMARK   11  A    between atoms: _49  and  _50
REMARK   12  A    between atoms: _60  and  _62
REMARK   13  A    between atoms: _62  and  _63
REMARK   14  A    between atoms: _62  and  _65
REMARK   15  A    between atoms: _65  and  _66
REMARK   16  A    between atoms: _69  and  _71
REMARK   17  A    between atoms: _71  and  _72
REMARK   18  A    between atoms: _71  and  _74
REMARK   19  A    between atoms: _74  and  _75
REMARK   20  A    between atoms: _80  and  _81
REMARK   21  A    between atoms: _83  and  _85
REMARK   22  A    between atoms: _85  and  _86
REMARK   23  A    between atoms: _85  and  _88
REMARK   24  A    between atoms: _88  and  _89
REMARK   25  A    between atoms: _89  and  _90
REMARK   26  A    between atoms: _93  and  _95
REMARK   27  A    between atoms: _95  and  _96
REMARK   28  A    between atoms: _95  and  _98
REMARK   29  A    between atoms: _98  and  _99
REMARK   30  A    between atoms: _99  and  _100
REMARK   31  A    between atoms: _102  and  _104
REMARK   32  A    between atoms: _104  and  _105
REMARK   33  A    between atoms: _104  and  _107
REMARK   34  A    between atoms: _107  and  _108
REMARK   35  A    between atoms: _111  and  _113
REMARK   36  A    between atoms: _113  and  _114
REMARK   37  A    between atoms: _113  and  _116
REMARK   38  A    between atoms: _116  and  _117
REMARK   39  A    between atoms: _117  and  _119
REMARK   40  A    between atoms: _119  and  ZN_409
REMARK   41  A    between atoms: _121  and  _122
REMARK   42  A    between atoms: _127  and  _129
REMARK   43  A    between atoms: _129  and  _130
REMARK   44  A    between atoms: _129  and  _132
REMARK   45  A    between atoms: _132  and  _133
REMARK   46  A    between atoms: _139  and  _141
REMARK   47  A    between atoms: _141  and  _142
REMARK   48  A    between atoms: _141  and  _144
REMARK   49  A    between atoms: _144  and  _145
REMARK   50  A    between atoms: _145  and  _146
REMARK   51  A    between atoms: _146  and  _147
REMARK   52  A    between atoms: _156  and  _158
REMARK   53  A    between atoms: _158  and  _159
REMARK   54  A    between atoms: _158  and  _161
REMARK   55  A    between atoms: _161  and  _162
REMARK   56  A    between atoms: _167  and  _168
REMARK   57  A    between atoms: _170  and  _172
REMARK   58  A    between atoms: _172  and  _173
REMARK   59  A    between atoms: _172  and  _175
REMARK   60  A    between atoms: _175  and  _176
REMARK   61  A    between atoms: _178  and  _180
REMARK   62  A    between atoms: _180  and  _181
REMARK   63  A    between atoms: _180  and  _183
REMARK   64  A    between atoms: _183  and  _184
REMARK   65  A    between atoms: _189  and  _190
REMARK   66  A    between atoms: _192  and  _194
REMARK   67  A    between atoms: _194  and  _195
REMARK   68  A    between atoms: _194  and  _197
REMARK   69  A    between atoms: _197  and  _198
REMARK   70  A    between atoms: _201  and  _203
REMARK   71  A    between atoms: _203  and  _204
REMARK   72  A    between atoms: _203  and  _206
REMARK   73  A    between atoms: _206  and  _207
REMARK   74  A    between atoms: _210  and  _212
REMARK   75  A    between atoms: _212  and  _213
REMARK   76  A    between atoms: _212  and  _215
REMARK   77  A    between atoms: _215  and  _216
REMARK   78  A    between atoms: _219  and  _221
REMARK   79  A    between atoms: _221  and  _222
REMARK   80  A    between atoms: _221  and  _224
REMARK   81  A    between atoms: _224  and  _225
REMARK   82  A    between atoms: _231  and  _233
REMARK   83  A    between atoms: _233  and  _234
REMARK   84  A    between atoms: _233  and  _236
REMARK   85  A    between atoms: _236  and  _237
REMARK   86  A    between atoms: _242  and  _243
REMARK   87  A    between atoms: _245  and  _247
REMARK   88  A    between atoms: _247  and  _248
REMARK   89  A    between atoms: _247  and  _250
REMARK   90  A    between atoms: _250  and  _251
REMARK   91  A    between atoms: _254  and  _256
REMARK   92  A    between atoms: _256  and  _257
REMARK   93  A    between atoms: _256  and  _259
REMARK   94  A    between atoms: _259  and  _260
REMARK   95  A    between atoms: _270  and  _272
REMARK   96  A    between atoms: _272  and  _273
REMARK   97  A    between atoms: _272  and  _275
REMARK   98  A    between atoms: _275  and  _276
REMARK   99  A    between atoms: _281  and  _283
REMARK  100  A    between atoms: _283  and  _284
REMARK  101  A    between atoms: _283  and  _286
REMARK  102  A    between atoms: _286  and  _287
REMARK  103  A    between atoms: _291  and  ZN_409
REMARK  104  A    between atoms: _292  and  _294
REMARK  105  A    between atoms: _294  and  _295
REMARK  106  A    between atoms: _294  and  _297
REMARK  107  A    between atoms: _297  and  _298
REMARK  108  A    between atoms: _301  and  _303
REMARK  109  A    between atoms: _303  and  _304
REMARK  110  A    between atoms: _306  and  _308
REMARK  111  A    between atoms: _308  and  _309
REMARK  112  A    between atoms: _308  and  _311
REMARK  113  A    between atoms: _311  and  _312
REMARK  114  A    between atoms: _315  and  _317
REMARK  115  A    between atoms: _317  and  _318
REMARK  116  A    between atoms: _317  and  _320
REMARK  117  A    between atoms: _320  and  _321
REMARK  118  A    between atoms: _324  and  _326
REMARK  119  A    between atoms: _326  and  _327
REMARK  120  A    between atoms: _330  and  _332
REMARK  121  A    between atoms: _332  and  _333
REMARK  122  A    between atoms: _336  and  _338
REMARK  123  A    between atoms: _338  and  _339
REMARK  124  A    between atoms: _338  and  _341
REMARK  125  A    between atoms: _341  and  _342
REMARK  126  A    between atoms: _347  and  _348
REMARK  127  A    between atoms: _350  and  _352
REMARK  128  A    between atoms: _352  and  _353
REMARK  129  A    between atoms: _352  and  _355
REMARK  130  A    between atoms: _355  and  _356
REMARK  131  A    between atoms: _359  and  _361
REMARK  132  A    between atoms: _361  and  _362
REMARK  133  A    between atoms: _361  and  _364
REMARK  134  A    between atoms: _364  and  _365
REMARK  135  A    between atoms: _368  and  _370
REMARK  136  A    between atoms: _370  and  _371
REMARK  137  A    between atoms: _370  and  _373
REMARK  138  A    between atoms: _373  and  _374
REMARK  139  A    between atoms: _374  and  _375
REMARK  140  A    between atoms: _378  and  _380
REMARK  141  A    between atoms: _380  and  _381
REMARK  142  A    between atoms: _380  and  _383
REMARK  143  A    between atoms: _383  and  _384
REMARK  144  A    between atoms: _384  and  _385
REMARK  145  A    between atoms: _385  and  _386
REMARK  146  A    between atoms: _395  and  _397
REMARK  147  A    between atoms: _397  and  _398
REMARK  148  A    between atoms: _400  and  _402
REMARK  149  A    between atoms: _402  and  _403
REMARK  150  A    between atoms: _402  and  _405
REMARK  151  A    between atoms: _405  and  _406
REMARK                            x       y       z     vdW  Elec       q    Type
REMARK                         _______ _______ _______ _____ _____    ______ ____
ROOT
ATOM      1  O   HOH     1      33.969  67.284  12.543  0.00  0.00    +0.000 OA
ENDROOT
TORSDOF 0
REMARK  Name = ../refined-set-2016/3dx2/3dx2_pocket.pdb
REMARK  151 active torsions:
REMARK  status: ('A' for Active; 'I' for Inactive)
REMARK    1  A    between atoms: _1  and  _3
REMARK    2  A    between atoms: _14  and  _17
REMARK    3  A    between atoms: _17  and  _18
REMARK    4  A    between atoms: _25  and  _26
REMARK    5  A    between atoms: _33  and  _34
REMARK    6  A    between atoms: _39  and  _41
REMARK    7  A    between atoms: _41  and  _42
REMARK    8  A    between atoms: _44  and  _46
REMARK    9  A    between atoms: _46  and  _47
REMARK   10  A    between atoms: _46  and  _49
REMARK   11  A    between atoms: _49  and  _50
REMARK   12  A    between atoms: _60  and  _62
REMARK   13  A    between atoms: _62  and  _63
REMARK   14  A    between atoms: _62  and  _65
REMARK   15  A    between atoms: _65  and  _66
REMARK   16  A    between atoms: _69  and  _71
REMARK   17  A    between atoms: _71  and  _72
REMARK   18  A    between atoms: _71  and  _74
REMARK   19  A    between atoms: _74  and  _75
REMARK   20  A    between atoms: _80  and  _81
REMARK   21  A    between atoms: _83  and  _85
REMARK   22  A    between atoms: _85  and  _86
REMARK   23  A    between atoms: _85  and  _88
REMARK   24  A    between atoms: _88  and  _89
REMARK   25  A    between atoms: _89  and  _90
REMARK   26  A    between atoms: _93  and  _95
REMARK   27  A    between atoms: _95  and  _96
REMARK   28  A    between atoms: _95  and  _98
REMARK   29  A    between atoms: _98  and  _99
REMARK   30  A    between atoms: _99  and  _100
REMARK   31  A    between atoms: _102  and  _104
REMARK   32  A    between atoms: _104  and  _105
REMARK   33  A    between atoms: _104  and  _107
REMARK   34  A    between atoms: _107  and  _108
REMARK   35  A    between atoms: _111  and  _113
REMARK   36  A    between atoms: _113  and  _114
REMARK   37  A    between atoms: _113  and  _116
REMARK   38  A    between atoms: _116  and  _117
REMARK   39  A    between atoms: _117  and  _119
REMARK   40  A    between atoms: _119  and  ZN_409
REMARK   41  A    between atoms: _121  and  _122
REMARK   42  A    between atoms: _127  and  _129
REMARK   43  A    between atoms: _129  and  _130
REMARK   44  A    between atoms: _129  and  _132
REMARK   45  A    between atoms: _132  and  _133
REMARK   46  A    between atoms: _139  and  _141
REMARK   47  A    between atoms: _141  and  _142
REMARK   48  A    between atoms: _141  and  _144
REMARK   49  A    between atoms: _144  and  _145
REMARK   50  A    between atoms: _145  and  _146
REMARK   51  A    between atoms: _146  and  _147
REMARK   52  A    between atoms: _156  and  _158
REMARK   53  A    between atoms: _158  and  _159
REMARK   54  A    between atoms: _158  and  _161
REMARK   55  A    between atoms: _161  and  _162
REMARK   56  A    between atoms: _167  and  _168
REMARK   57  A    between atoms: _170  and  _172
REMARK   58  A    between atoms: _172  and  _173
REMARK   59  A    between atoms: _172  and  _175
REMARK   60  A    between atoms: _175  and  _176
REMARK   61  A    between atoms: _178  and  _180
REMARK   62  A    between atoms: _180  and  _181
REMARK   63  A    between atoms: _180  and  _183
REMARK   64  A    between atoms: _183  and  _184
REMARK   65  A    between atoms: _189  and  _190
REMARK   66  A    between atoms: _192  and  _194
REMARK   67  A    between atoms: _194  and  _195
REMARK   68  A    between atoms: _194  and  _197
REMARK   69  A    between atoms: _197  and  _198
REMARK   70  A    between atoms: _201  and  _203
REMARK   71  A    between atoms: _203  and  _204
REMARK   72  A    between atoms: _203  and  _206
REMARK   73  A    between atoms: _206  and  _207
REMARK   74  A    between atoms: _210  and  _212
REMARK   75  A    between atoms: _212  and  _213
REMARK   76  A    between atoms: _212  and  _215
REMARK   77  A    between atoms: _215  and  _216
REMARK   78  A    between atoms: _219  and  _221
REMARK   79  A    between atoms: _221  and  _222
REMARK   80  A    between atoms: _221  and  _224
REMARK   81  A    between atoms: _224  and  _225
REMARK   82  A    between atoms: _231  and  _233
REMARK   83  A    between atoms: _233  and  _234
REMARK   84  A    between atoms: _233  and  _236
REMARK   85  A    between atoms: _236  and  _237
REMARK   86  A    between atoms: _242  and  _243
REMARK   87  A    between atoms: _245  and  _247
REMARK   88  A    between atoms: _247  and  _248
REMARK   89  A    between atoms: _247  and  _250
REMARK   90  A    between atoms: _250  and  _251
REMARK   91  A    between atoms: _254  and  _256
REMARK   92  A    between atoms: _256  and  _257
REMARK   93  A    between atoms: _256  and  _259
REMARK   94  A    between atoms: _259  and  _260
REMARK   95  A    between atoms: _270  and  _272
REMARK   96  A    between atoms: _272  and  _273
REMARK   97  A    between atoms: _272  and  _275
REMARK   98  A    between atoms: _275  and  _276
REMARK   99  A    between atoms: _281  and  _283
REMARK  100  A    between atoms: _283  and  _284
REMARK  101  A    between atoms: _283  and  _286
REMARK  102  A    between atoms: _286  and  _287
REMARK  103  A    between atoms: _291  and  ZN_409
REMARK  104  A    between atoms: _292  and  _294
REMARK  105  A    between atoms: _294  and  _295
REMARK  106  A    between atoms: _294  and  _297
REMARK  107  A    between atoms: _297  and  _298
REMARK  108  A    between atoms: _301  and  _303
REMARK  109  A    between atoms: _303  and  _304
REMARK  110  A    between atoms: _306  and  _308
REMARK  111  A    between atoms: _308  and  _309
REMARK  112  A    between atoms: _308  and  _311
REMARK  113  A    between atoms: _311  and  _312
REMARK  114  A    between atoms: _315  and  _317
REMARK  115  A    between atoms: _317  and  _318
REMARK  116  A    between atoms: _317  and  _320
REMARK  117  A    between atoms: _320  and  _321
REMARK  118  A    between atoms: _324  and  _326
REMARK  119  A    between atoms: _326  and  _327
REMARK  120  A    between atoms: _330  and  _332
REMARK  121  A    between atoms: _332  and  _333
REMARK  122  A    between atoms: _336  and  _338
REMARK  123  A    between atoms: _338  and  _339
REMARK  124  A    between atoms: _338  and  _341
REMARK  125  A    between atoms: _341  and  _342
REMARK  126  A    between atoms: _347  and  _348
REMARK  127  A    between atoms: _350  and  _352
REMARK  128  A    between atoms: _352  and  _353
REMARK  129  A    between atoms: _352  and  _355
REMARK  130  A    between atoms: _355  and  _356
REMARK  131  A    between atoms: _359  and  _361
REMARK  132  A    between atoms: _361  and  _362
REMARK  133  A    between atoms: _361  and  _364
REMARK  134  A    between atoms: _364  and  _365
REMARK  135  A    between atoms: _368  and  _370
REMARK  136  A    between atoms: _370  and  _371
REMARK  137  A    between atoms: _370  and  _373
REMARK  138  A    between atoms: _373  and  _374
REMARK  139  A    between atoms: _374  and  _375
REMARK  140  A    between atoms: _378  and  _380
REMARK  141  A    between atoms: _380  and  _381
REMARK  142  A    between atoms: _380  and  _383
REMARK  143  A    between atoms: _383  and  _384
REMARK  144  A    between atoms: _384  and  _385
REMARK  145  A    between atoms: _385  and  _386
REMARK  146  A    between atoms: _395  and  _397
REMARK  147  A    between atoms: _397  and  _398
REMARK  148  A    between atoms: _400  and  _402
REMARK  149  A    between atoms: _402  and  _403
REMARK  150  A    between atoms: _402  and  _405
REMARK  151  A    between atoms: _405  and  _406
REMARK                            x       y       z     vdW  Elec       q    Type
REMARK                         _______ _______ _______ _____ _____    ______ ____
ROOT
ATOM      1  O   HOH     1      30.201  66.920  13.296  0.00  0.00    +0.000 OA
ENDROOT
TORSDOF 0
REMARK  Name = ../refined-set-2016/3dx2/3dx2_pocket.pdb
REMARK  151 active torsions:
REMARK  status: ('A' for Active; 'I' for Inactive)
REMARK    1  A    between atoms: _1  and  _3
REMARK    2  A    between atoms: _14  and  _17
REMARK    3  A    between atoms: _17  and  _18
REMARK    4  A    between atoms: _25  and  _26
REMARK    5  A    between atoms: _33  and  _34
REMARK    6  A    between atoms: _39  and  _41
REMARK    7  A    between atoms: _41  and  _42
REMARK    8  A    between atoms: _44  and  _46
REMARK    9  A    between atoms: _46  and  _47
REMARK   10  A    between atoms: _46  and  _49
REMARK   11  A    between atoms: _49  and  _50
REMARK   12  A    between atoms: _60  and  _62
REMARK   13  A    between atoms: _62  and  _63
REMARK   14  A    between atoms: _62  and  _65
REMARK   15  A    between atoms: _65  and  _66
REMARK   16  A    between atoms: _69  and  _71
REMARK   17  A    between atoms: _71  and  _72
REMARK   18  A    between atoms: _71  and  _74
REMARK   19  A    between atoms: _74  and  _75
REMARK   20  A    between atoms: _80  and  _81
REMARK   21  A    between atoms: _83  and  _85
REMARK   22  A    between atoms: _85  and  _86
REMARK   23  A    between atoms: _85  and  _88
REMARK   24  A    between atoms: _88  and  _89
REMARK   25  A    between atoms: _89  and  _90
REMARK   26  A    between atoms: _93  and  _95
REMARK   27  A    between atoms: _95  and  _96
REMARK   28  A    between atoms: _95  and  _98
REMARK   29  A    between atoms: _98  and  _99
REMARK   30  A    between atoms: _99  and  _100
REMARK   31  A    between atoms: _102  and  _104
REMARK   32  A    between atoms: _104  and  _105
REMARK   33  A    between atoms: _104  and  _107
REMARK   34  A    between atoms: _107  and  _108
REMARK   35  A    between atoms: _111  and  _113
REMARK   36  A    between atoms: _113  and  _114
REMARK   37  A    between atoms: _113  and  _116
REMARK   38  A    between atoms: _116  and  _117
REMARK   39  A    between atoms: _117  and  _119
REMARK   40  A    between atoms: _119  and  ZN_409
REMARK   41  A    between atoms: _121  and  _122
REMARK   42  A    between atoms: _127  and  _129
REMARK   43  A    between atoms: _129  and  _130
REMARK   44  A    between atoms: _129  and  _132
REMARK   45  A    between atoms: _132  and  _133
REMARK   46  A    between atoms: _139  and  _141
REMARK   47  A    between atoms: _141  and  _142
REMARK   48  A    between atoms: _141  and  _144
REMARK   49  A    between atoms: _144  and  _145
REMARK   50  A    between atoms: _145  and  _146
REMARK   51  A    between atoms: _146  and  _147
REMARK   52  A    between atoms: _156  and  _158
REMARK   53  A    between atoms: _158  and  _159
REMARK   54  A    between atoms: _158  and  _161
REMARK   55  A    between atoms: _161  and  _162
REMARK   56  A    between atoms: _167  and  _168
REMARK   57  A    between atoms: _170  and  _172
REMARK   58  A    between atoms: _172  and  _173
REMARK   59  A    between atoms: _172  and  _175
REMARK   60  A    between atoms: _175  and  _176
REMARK   61  A    between atoms: _178  and  _180
REMARK   62  A    between atoms: _180  and  _181
REMARK   63  A    between atoms: _180  and  _183
REMARK   64  A    between atoms: _183  and  _184
REMARK   65  A    between atoms: _189  and  _190
REMARK   66  A    between atoms: _192  and  _194
REMARK   67  A    between atoms: _194  and  _195
REMARK   68  A    between atoms: _194  and  _197
REMARK   69  A    between atoms: _197  and  _198
REMARK   70  A    between atoms: _201  and  _203
REMARK   71  A    between atoms: _203  and  _204
REMARK   72  A    between atoms: _203  and  _206
REMARK   73  A    between atoms: _206  and  _207
REMARK   74  A    between atoms: _210  and  _212
REMARK   75  A    between atoms: _212  and  _213
REMARK   76  A    between atoms: _212  and  _215
REMARK   77  A    between atoms: _215  and  _216
REMARK   78  A    between atoms: _219  and  _221
REMARK   79  A    between atoms: _221  and  _222
REMARK   80  A    between atoms: _221  and  _224
REMARK   81  A    between atoms: _224  and  _225
REMARK   82  A    between atoms: _231  and  _233
REMARK   83  A    between atoms: _233  and  _234
REMARK   84  A    between atoms: _233  and  _236
REMARK   85  A    between atoms: _236  and  _237
REMARK   86  A    between atoms: _242  and  _243
REMARK   87  A    between atoms: _245  and  _247
REMARK   88  A    between atoms: _247  and  _248
REMARK   89  A    between atoms: _247  and  _250
REMARK   90  A    between atoms: _250  and  _251
REMARK   91  A    between atoms: _254  and  _256
REMARK   92  A    between atoms: _256  and  _257
REMARK   93  A    between atoms: _256  and  _259
REMARK   94  A    between atoms: _259  and  _260
REMARK   95  A    between atoms: _270  and  _272
REMARK   96  A    between atoms: _272  and  _273
REMARK   97  A    between atoms: _272  and  _275
REMARK   98  A    between atoms: _275  and  _276
REMARK   99  A    between atoms: _281  and  _283
REMARK  100  A    between atoms: _283  and  _284
REMARK  101  A    between atoms: _283  and  _286
REMARK  102  A    between atoms: _286  and  _287
REMARK  103  A    between atoms: _291  and  ZN_409
REMARK  104  A    between atoms: _292  and  _294
REMARK  105  A    between atoms: _294  and  _295
REMARK  106  A    between atoms: _294  and  _297
REMARK  107  A    between atoms: _297  and  _298
REMARK  108  A    between atoms: _301  and  _303
REMARK  109  A    between atoms: _303  and  _304
REMARK  110  A    between atoms: _306  and  _308
REMARK  111  A    between atoms: _308  and  _309
REMARK  112  A    between atoms: _308  and  _311
REMARK  113  A    between atoms: _311  and  _312
REMARK  114  A    between atoms: _315  and  _317
REMARK  115  A    between atoms: _317  and  _318
REMARK  116  A    between atoms: _317  and  _320
REMARK  117  A    between atoms: _320  and  _321
REMARK  118  A    between atoms: _324  and  _326
REMARK  119  A    between atoms: _326  and  _327
REMARK  120  A    between atoms: _330  and  _332
REMARK  121  A    between atoms: _332  and  _333
REMARK  122  A    between atoms: _336  and  _338
REMARK  123  A    between atoms: _338  and  _339
REMARK  124  A    between atoms: _338  and  _341
REMARK  125  A    between atoms: _341  and  _342
REMARK  126  A    between atoms: _347  and  _348
REMARK  127  A    between atoms: _350  and  _352
REMARK  128  A    between atoms: _352  and  _353
REMARK  129  A    between atoms: _352  and  _355
REMARK  130  A    between atoms: _355  and  _356
REMARK  131  A    between atoms: _359  and  _361
REMARK  132  A    between atoms: _361  and  _362
REMARK  133  A    between atoms: _361  and  _364
REMARK  134  A    between atoms: _364  and  _365
REMARK  135  A    between atoms: _368  and  _370
REMARK  136  A    between atoms: _370  and  _371
REMARK  137  A    between atoms: _370  and  _373
REMARK  138  A    between atoms: _373  and  _374
REMARK  139  A    between atoms: _374  and  _375
REMARK  140  A    between atoms: _378  and  _380
REMARK  141  A    between atoms: _380  and  _381
REMARK  142  A    between atoms: _380  and  _383
REMARK  143  A    between atoms: _383  and  _384
REMARK  144  A    between atoms: _384  and  _385
REMARK  145  A    between atoms: _385  and  _386
REMARK  146  A    between atoms: _395  and  _397
REMARK  147  A    between atoms: _397  and  _398
REMARK  148  A    between atoms: _400  and  _402
REMARK  149  A    between atoms: _402  and  _403
REMARK  150  A    between atoms: _402  and  _405
REMARK  151  A    between atoms: _405  and  _406
REMARK                            x       y       z     vdW  Elec       q    Type
REMARK                         _______ _______ _______ _____ _____    ______ ____
ROOT
ATOM      1  O   HOH     1      28.757  69.041  12.916  0.00  0.00    +0.000 OA
ENDROOT
TORSDOF 0
REMARK  Name = ../refined-set-2016/3dx2/3dx2_pocket.pdb
REMARK  151 active torsions:
REMARK  status: ('A' for Active; 'I' for Inactive)
REMARK    1  A    between atoms: _1  and  _3
REMARK    2  A    between atoms: _14  and  _17
REMARK    3  A    between atoms: _17  and  _18
REMARK    4  A    between atoms: _25  and  _26
REMARK    5  A    between atoms: _33  and  _34
REMARK    6  A    between atoms: _39  and  _41
REMARK    7  A    between atoms: _41  and  _42
REMARK    8  A    between atoms: _44  and  _46
REMARK    9  A    between atoms: _46  and  _47
REMARK   10  A    between atoms: _46  and  _49
REMARK   11  A    between atoms: _49  and  _50
REMARK   12  A    between atoms: _60  and  _62
REMARK   13  A    between atoms: _62  and  _63
REMARK   14  A    between atoms: _62  and  _65
REMARK   15  A    between atoms: _65  and  _66
REMARK   16  A    between atoms: _69  and  _71
REMARK   17  A    between atoms: _71  and  _72
REMARK   18  A    between atoms: _71  and  _74
REMARK   19  A    between atoms: _74  and  _75
REMARK   20  A    between atoms: _80  and  _81
REMARK   21  A    between atoms: _83  and  _85
REMARK   22  A    between atoms: _85  and  _86
REMARK   23  A    between atoms: _85  and  _88
REMARK   24  A    between atoms: _88  and  _89
REMARK   25  A    between atoms: _89  and  _90
REMARK   26  A    between atoms: _93  and  _95
REMARK   27  A    between atoms: _95  and  _96
REMARK   28  A    between atoms: _95  and  _98
REMARK   29  A    between atoms: _98  and  _99
REMARK   30  A    between atoms: _99  and  _100
REMARK   31  A    between atoms: _102  and  _104
REMARK   32  A    between atoms: _104  and  _105
REMARK   33  A    between atoms: _104  and  _107
REMARK   34  A    between atoms: _107  and  _108
REMARK   35  A    between atoms: _111  and  _113
REMARK   36  A    between atoms: _113  and  _114
REMARK   37  A    between atoms: _113  and  _116
REMARK   38  A    between atoms: _116  and  _117
REMARK   39  A    between atoms: _117  and  _119
REMARK   40  A    between atoms: _119  and  ZN_409
REMARK   41  A    between atoms: _121  and  _122
REMARK   42  A    between atoms: _127  and  _129
REMARK   43  A    between atoms: _129  and  _130
REMARK   44  A    between atoms: _129  and  _132
REMARK   45  A    between atoms: _132  and  _133
REMARK   46  A    between atoms: _139  and  _141
REMARK   47  A    between atoms: _141  and  _142
REMARK   48  A    between atoms: _141  and  _144
REMARK   49  A    between atoms: _144  and  _145
REMARK   50  A    between atoms: _145  and  _146
REMARK   51  A    between atoms: _146  and  _147
REMARK   52  A    between atoms: _156  and  _158
REMARK   53  A    between atoms: _158  and  _159
REMARK   54  A    between atoms: _158  and  _161
REMARK   55  A    between atoms: _161  and  _162
REMARK   56  A    between atoms: _167  and  _168
REMARK   57  A    between atoms: _170  and  _172
REMARK   58  A    between atoms: _172  and  _173
REMARK   59  A    between atoms: _172  and  _175
REMARK   60  A    between atoms: _175  and  _176
REMARK   61  A    between atoms: _178  and  _180
REMARK   62  A    between atoms: _180  and  _181
REMARK   63  A    between atoms: _180  and  _183
REMARK   64  A    between atoms: _183  and  _184
REMARK   65  A    between atoms: _189  and  _190
REMARK   66  A    between atoms: _192  and  _194
REMARK   67  A    between atoms: _194  and  _195
REMARK   68  A    between atoms: _194  and  _197
REMARK   69  A    between atoms: _197  and  _198
REMARK   70  A    between atoms: _201  and  _203
REMARK   71  A    between atoms: _203  and  _204
REMARK   72  A    between atoms: _203  and  _206
REMARK   73  A    between atoms: _206  and  _207
REMARK   74  A    between atoms: _210  and  _212
REMARK   75  A    between atoms: _212  and  _213
REMARK   76  A    between atoms: _212  and  _215
REMARK   77  A    between atoms: _215  and  _216
REMARK   78  A    between atoms: _219  and  _221
REMARK   79  A    between atoms: _221  and  _222
REMARK   80  A    between atoms: _221  and  _224
REMARK   81  A    between atoms: _224  and  _225
REMARK   82  A    between atoms: _231  and  _233
REMARK   83  A    between atoms: _233  and  _234
REMARK   84  A    between atoms: _233  and  _236
REMARK   85  A    between atoms: _236  and  _237
REMARK   86  A    between atoms: _242  and  _243
REMARK   87  A    between atoms: _245  and  _247
REMARK   88  A    between atoms: _247  and  _248
REMARK   89  A    between atoms: _247  and  _250
REMARK   90  A    between atoms: _250  and  _251
REMARK   91  A    between atoms: _254  and  _256
REMARK   92  A    between atoms: _256  and  _257
REMARK   93  A    between atoms: _256  and  _259
REMARK   94  A    between atoms: _259  and  _260
REMARK   95  A    between atoms: _270  and  _272
REMARK   96  A    between atoms: _272  and  _273
REMARK   97  A    between atoms: _272  and  _275
REMARK   98  A    between atoms: _275  and  _276
REMARK   99  A    between atoms: _281  and  _283
REMARK  100  A    between atoms: _283  and  _284
REMARK  101  A    between atoms: _283  and  _286
REMARK  102  A    between atoms: _286  and  _287
REMARK  103  A    between atoms: _291  and  ZN_409
REMARK  104  A    between atoms: _292  and  _294
REMARK  105  A    between atoms: _294  and  _295
REMARK  106  A    between atoms: _294  and  _297
REMARK  107  A    between atoms: _297  and  _298
REMARK  108  A    between atoms: _301  and  _303
REMARK  109  A    between atoms: _303  and  _304
REMARK  110  A    between atoms: _306  and  _308
REMARK  111  A    between atoms: _308  and  _309
REMARK  112  A    between atoms: _308  and  _311
REMARK  113  A    between atoms: _311  and  _312
REMARK  114  A    between atoms: _315  and  _317
REMARK  115  A    between atoms: _317  and  _318
REMARK  116  A    between atoms: _317  and  _320
REMARK  117  A    between atoms: _320  and  _321
REMARK  118  A    between atoms: _324  and  _326
REMARK  119  A    between atoms: _326  and  _327
REMARK  120  A    between atoms: _330  and  _332
REMARK  121  A    between atoms: _332  and  _333
REMARK  122  A    between atoms: _336  and  _338
REMARK  123  A    between atoms: _338  and  _339
REMARK  124  A    between atoms: _338  and  _341
REMARK  125  A    between atoms: _341  and  _342
REMARK  126  A    between atoms: _347  and  _348
REMARK  127  A    between atoms: _350  and  _352
REMARK  128  A    between atoms: _352  and  _353
REMARK  129  A    between atoms: _352  and  _355
REMARK  130  A    between atoms: _355  and  _356
REMARK  131  A    between atoms: _359  and  _361
REMARK  132  A    between atoms: _361  and  _362
REMARK  133  A    between atoms: _361  and  _364
REMARK  134  A    between atoms: _364  and  _365
REMARK  135  A    between atoms: _368  and  _370
REMARK  136  A    between atoms: _370  and  _371
REMARK  137  A    between atoms: _370  and  _373
REMARK  138  A    between atoms: _373  and  _374
REMARK  139  A    between atoms: _374  and  _375
REMARK  140  A    between atoms: _378  and  _380
REMARK  141  A    between atoms: _380  and  _381
REMARK  142  A    between atoms: _380  and  _383
REMARK  143  A    between atoms: _383  and  _384
REMARK  144  A    between atoms: _384  and  _385
REMARK  145  A    between atoms: _385  and  _386
REMARK  146  A    between atoms: _395  and  _397
REMARK  147  A    between atoms: _397  and  _398
REMARK  148  A    between atoms: _400  and  _402
REMARK  149  A    between atoms: _402  and  _403
REMARK  150  A    between atoms: _402  and  _405
REMARK  151  A    between atoms: _405  and  _406
REMARK                            x       y       z     vdW  Elec       q    Type
REMARK                         _______ _______ _______ _____ _____    ______ ____
ROOT
ATOM      1  O   HOH     1      27.829  67.567  11.142  0.00  0.00    +0.000 OA
ENDROOT
TORSDOF 0
REMARK  Name = ../refined-set-2016/3dx2/3dx2_pocket.pdb
REMARK  151 active torsions:
REMARK  status: ('A' for Active; 'I' for Inactive)
REMARK    1  A    between atoms: _1  and  _3
REMARK    2  A    between atoms: _14  and  _17
REMARK    3  A    between atoms: _17  and  _18
REMARK    4  A    between atoms: _25  and  _26
REMARK    5  A    between atoms: _33  and  _34
REMARK    6  A    between atoms: _39  and  _41
REMARK    7  A    between atoms: _41  and  _42
REMARK    8  A    between atoms: _44  and  _46
REMARK    9  A    between atoms: _46  and  _47
REMARK   10  A    between atoms: _46  and  _49
REMARK   11  A    between atoms: _49  and  _50
REMARK   12  A    between atoms: _60  and  _62
REMARK   13  A    between atoms: _62  and  _63
REMARK   14  A    between atoms: _62  and  _65
REMARK   15  A    between atoms: _65  and  _66
REMARK   16  A    between atoms: _69  and  _71
REMARK   17  A    between atoms: _71  and  _72
REMARK   18  A    between atoms: _71  and  _74
REMARK   19  A    between atoms: _74  and  _75
REMARK   20  A    between atoms: _80  and  _81
REMARK   21  A    between atoms: _83  and  _85
REMARK   22  A    between atoms: _85  and  _86
REMARK   23  A    between atoms: _85  and  _88
REMARK   24  A    between atoms: _88  and  _89
REMARK   25  A    between atoms: _89  and  _90
REMARK   26  A    between atoms: _93  and  _95
REMARK   27  A    between atoms: _95  and  _96
REMARK   28  A    between atoms: _95  and  _98
REMARK   29  A    between atoms: _98  and  _99
REMARK   30  A    between atoms: _99  and  _100
REMARK   31  A    between atoms: _102  and  _104
REMARK   32  A    between atoms: _104  and  _105
REMARK   33  A    between atoms: _104  and  _107
REMARK   34  A    between atoms: _107  and  _108
REMARK   35  A    between atoms: _111  and  _113
REMARK   36  A    between atoms: _113  and  _114
REMARK   37  A    between atoms: _113  and  _116
REMARK   38  A    between atoms: _116  and  _117
REMARK   39  A    between atoms: _117  and  _119
REMARK   40  A    between atoms: _119  and  ZN_409
REMARK   41  A    between atoms: _121  and  _122
REMARK   42  A    between atoms: _127  and  _129
REMARK   43  A    between atoms: _129  and  _130
REMARK   44  A    between atoms: _129  and  _132
REMARK   45  A    between atoms: _132  and  _133
REMARK   46  A    between atoms: _139  and  _141
REMARK   47  A    between atoms: _141  and  _142
REMARK   48  A    between atoms: _141  and  _144
REMARK   49  A    between atoms: _144  and  _145
REMARK   50  A    between atoms: _145  and  _146
REMARK   51  A    between atoms: _146  and  _147
REMARK   52  A    between atoms: _156  and  _158
REMARK   53  A    between atoms: _158  and  _159
REMARK   54  A    between atoms: _158  and  _161
REMARK   55  A    between atoms: _161  and  _162
REMARK   56  A    between atoms: _167  and  _168
REMARK   57  A    between atoms: _170  and  _172
REMARK   58  A    between atoms: _172  and  _173
REMARK   59  A    between atoms: _172  and  _175
REMARK   60  A    between atoms: _175  and  _176
REMARK   61  A    between atoms: _178  and  _180
REMARK   62  A    between atoms: _180  and  _181
REMARK   63  A    between atoms: _180  and  _183
REMARK   64  A    between atoms: _183  and  _184
REMARK   65  A    between atoms: _189  and  _190
REMARK   66  A    between atoms: _192  and  _194
REMARK   67  A    between atoms: _194  and  _195
REMARK   68  A    between atoms: _194  and  _197
REMARK   69  A    between atoms: _197  and  _198
REMARK   70  A    between atoms: _201  and  _203
REMARK   71  A    between atoms: _203  and  _204
REMARK   72  A    between atoms: _203  and  _206
REMARK   73  A    between atoms: _206  and  _207
REMARK   74  A    between atoms: _210  and  _212
REMARK   75  A    between atoms: _212  and  _213
REMARK   76  A    between atoms: _212  and  _215
REMARK   77  A    between atoms: _215  and  _216
REMARK   78  A    between atoms: _219  and  _221
REMARK   79  A    between atoms: _221  and  _222
REMARK   80  A    between atoms: _221  and  _224
REMARK   81  A    between atoms: _224  and  _225
REMARK   82  A    between atoms: _231  and  _233
REMARK   83  A    between atoms: _233  and  _234
REMARK   84  A    between atoms: _233  and  _236
REMARK   85  A    between atoms: _236  and  _237
REMARK   86  A    between atoms: _242  and  _243
REMARK   87  A    between atoms: _245  and  _247
REMARK   88  A    between atoms: _247  and  _248
REMARK   89  A    between atoms: _247  and  _250
REMARK   90  A    between atoms: _250  and  _251
REMARK   91  A    between atoms: _254  and  _256
REMARK   92  A    between atoms: _256  and  _257
REMARK   93  A    between atoms: _256  and  _259
REMARK   94  A    between atoms: _259  and  _260
REMARK   95  A    between atoms: _270  and  _272
REMARK   96  A    between atoms: _272  and  _273
REMARK   97  A    between atoms: _272  and  _275
REMARK   98  A    between atoms: _275  and  _276
REMARK   99  A    between atoms: _281  and  _283
REMARK  100  A    between atoms: _283  and  _284
REMARK  101  A    between atoms: _283  and  _286
REMARK  102  A    between atoms: _286  and  _287
REMARK  103  A    between atoms: _291  and  ZN_409
REMARK  104  A    between atoms: _292  and  _294
REMARK  105  A    between atoms: _294  and  _295
REMARK  106  A    between atoms: _294  and  _297
REMARK  107  A    between atoms: _297  and  _298
REMARK  108  A    between atoms: _301  and  _303
REMARK  109  A    between atoms: _303  and  _304
REMARK  110  A    between atoms: _306  and  _308
REMARK  111  A    between atoms: _308  and  _309
REMARK  112  A    between atoms: _308  and  _311
REMARK  113  A    between atoms: _311  and  _312
REMARK  114  A    between atoms: _315  and  _317
REMARK  115  A    between atoms: _317  and  _318
REMARK  116  A    between atoms: _317  and  _320
REMARK  117  A    between atoms: _320  and  _321
REMARK  118  A    between atoms: _324  and  _326
REMARK  119  A    between atoms: _326  and  _327
REMARK  120  A    between atoms: _330  and  _332
REMARK  121  A    between atoms: _332  and  _333
REMARK  122  A    between atoms: _336  and  _338
REMARK  123  A    between atoms: _338  and  _339
REMARK  124  A    between atoms: _338  and  _341
REMARK  125  A    between atoms: _341  and  _342
REMARK  126  A    between atoms: _347  and  _348
REMARK  127  A    between atoms: _350  and  _352
REMARK  128  A    between atoms: _352  and  _353
REMARK  129  A    between atoms: _352  and  _355
REMARK  130  A    between atoms: _355  and  _356
REMARK  131  A    between atoms: _359  and  _361
REMARK  132  A    between atoms: _361  and  _362
REMARK  133  A    between atoms: _361  and  _364
REMARK  134  A    between atoms: _364  and  _365
REMARK  135  A    between atoms: _368  and  _370
REMARK  136  A    between atoms: _370  and  _371
REMARK  137  A    between atoms: _370  and  _373
REMARK  138  A    between atoms: _373  and  _374
REMARK  139  A    between atoms: _374  and  _375
REMARK  140  A    between atoms: _378  and  _380
REMARK  141  A    between atoms: _380  and  _381
REMARK  142  A    between atoms: _380  and  _383
REMARK  143  A    between atoms: _383  and  _384
REMARK  144  A    between atoms: _384  and  _385
REMARK  145  A    between atoms: _385  and  _386
REMARK  146  A    between atoms: _395  and  _397
REMARK  147  A    between atoms: _397  and  _398
REMARK  148  A    between atoms: _400  and  _402
REMARK  149  A    between atoms: _402  and  _403
REMARK  150  A    between atoms: _402  and  _405
REMARK  151  A    between atoms: _405  and  _406
REMARK                            x       y       z     vdW  Elec       q    Type
REMARK                         _______ _______ _______ _____ _____    ______ ____
ROOT
ATOM      1  O   HOH     1      25.549  65.178   8.393  0.00  0.00    +0.000 OA
ENDROOT
TORSDOF 0
REMARK  Name = ../refined-set-2016/3dx2/3dx2_pocket.pdb
REMARK  151 active torsions:
REMARK  status: ('A' for Active; 'I' for Inactive)
REMARK    1  A    between atoms: _1  and  _3
REMARK    2  A    between atoms: _14  and  _17
REMARK    3  A    between atoms: _17  and  _18
REMARK    4  A    between atoms: _25  and  _26
REMARK    5  A    between atoms: _33  and  _34
REMARK    6  A    between atoms: _39  and  _41
REMARK    7  A    between atoms: _41  and  _42
REMARK    8  A    between atoms: _44  and  _46
REMARK    9  A    between atoms: _46  and  _47
REMARK   10  A    between atoms: _46  and  _49
REMARK   11  A    between atoms: _49  and  _50
REMARK   12  A    between atoms: _60  and  _62
REMARK   13  A    between atoms: _62  and  _63
REMARK   14  A    between atoms: _62  and  _65
REMARK   15  A    between atoms: _65  and  _66
REMARK   16  A    between atoms: _69  and  _71
REMARK   17  A    between atoms: _71  and  _72
REMARK   18  A    between atoms: _71  and  _74
REMARK   19  A    between atoms: _74  and  _75
REMARK   20  A    between atoms: _80  and  _81
REMARK   21  A    between atoms: _83  and  _85
REMARK   22  A    between atoms: _85  and  _86
REMARK   23  A    between atoms: _85  and  _88
REMARK   24  A    between atoms: _88  and  _89
REMARK   25  A    between atoms: _89  and  _90
REMARK   26  A    between atoms: _93  and  _95
REMARK   27  A    between atoms: _95  and  _96
REMARK   28  A    between atoms: _95  and  _98
REMARK   29  A    between atoms: _98  and  _99
REMARK   30  A    between atoms: _99  and  _100
REMARK   31  A    between atoms: _102  and  _104
REMARK   32  A    between atoms: _104  and  _105
REMARK   33  A    between atoms: _104  and  _107
REMARK   34  A    between atoms: _107  and  _108
REMARK   35  A    between atoms: _111  and  _113
REMARK   36  A    between atoms: _113  and  _114
REMARK   37  A    between atoms: _113  and  _116
REMARK   38  A    between atoms: _116  and  _117
REMARK   39  A    between atoms: _117  and  _119
REMARK   40  A    between atoms: _119  and  ZN_409
REMARK   41  A    between atoms: _121  and  _122
REMARK   42  A    between atoms: _127  and  _129
REMARK   43  A    between atoms: _129  and  _130
REMARK   44  A    between atoms: _129  and  _132
REMARK   45  A    between atoms: _132  and  _133
REMARK   46  A    between atoms: _139  and  _141
REMARK   47  A    between atoms: _141  and  _142
REMARK   48  A    between atoms: _141  and  _144
REMARK   49  A    between atoms: _144  and  _145
REMARK   50  A    between atoms: _145  and  _146
REMARK   51  A    between atoms: _146  and  _147
REMARK   52  A    between atoms: _156  and  _158
REMARK   53  A    between atoms: _158  and  _159
REMARK   54  A    between atoms: _158  and  _161
REMARK   55  A    between atoms: _161  and  _162
REMARK   56  A    between atoms: _167  and  _168
REMARK   57  A    between atoms: _170  and  _172
REMARK   58  A    between atoms: _172  and  _173
REMARK   59  A    between atoms: _172  and  _175
REMARK   60  A    between atoms: _175  and  _176
REMARK   61  A    between atoms: _178  and  _180
REMARK   62  A    between atoms: _180  and  _181
REMARK   63  A    between atoms: _180  and  _183
REMARK   64  A    between atoms: _183  and  _184
REMARK   65  A    between atoms: _189  and  _190
REMARK   66  A    between atoms: _192  and  _194
REMARK   67  A    between atoms: _194  and  _195
REMARK   68  A    between atoms: _194  and  _197
REMARK   69  A    between atoms: _197  and  _198
REMARK   70  A    between atoms: _201  and  _203
REMARK   71  A    between atoms: _203  and  _204
REMARK   72  A    between atoms: _203  and  _206
REMARK   73  A    between atoms: _206  and  _207
REMARK   74  A    between atoms: _210  and  _212
REMARK   75  A    between atoms: _212  and  _213
REMARK   76  A    between atoms: _212  and  _215
REMARK   77  A    between atoms: _215  and  _216
REMARK   78  A    between atoms: _219  and  _221
REMARK   79  A    between atoms: _221  and  _222
REMARK   80  A    between atoms: _221  and  _224
REMARK   81  A    between atoms: _224  and  _225
REMARK   82  A    between atoms: _231  and  _233
REMARK   83  A    between atoms: _233  and  _234
REMARK   84  A    between atoms: _233  and  _236
REMARK   85  A    between atoms: _236  and  _237
REMARK   86  A    between atoms: _242  and  _243
REMARK   87  A    between atoms: _245  and  _247
REMARK   88  A    between atoms: _247  and  _248
REMARK   89  A    between atoms: _247  and  _250
REMARK   90  A    between atoms: _250  and  _251
REMARK   91  A    between atoms: _254  and  _256
REMARK   92  A    between atoms: _256  and  _257
REMARK   93  A    between atoms: _256  and  _259
REMARK   94  A    between atoms: _259  and  _260
REMARK   95  A    between atoms: _270  and  _272
REMARK   96  A    between atoms: _272  and  _273
REMARK   97  A    between atoms: _272  and  _275
REMARK   98  A    between atoms: _275  and  _276
REMARK   99  A    between atoms: _281  and  _283
REMARK  100  A    between atoms: _283  and  _284
REMARK  101  A    between atoms: _283  and  _286
REMARK  102  A    between atoms: _286  and  _287
REMARK  103  A    between atoms: _291  and  ZN_409
REMARK  104  A    between atoms: _292  and  _294
REMARK  105  A    between atoms: _294  and  _295
REMARK  106  A    between atoms: _294  and  _297
REMARK  107  A    between atoms: _297  and  _298
REMARK  108  A    between atoms: _301  and  _303
REMARK  109  A    between atoms: _303  and  _304
REMARK  110  A    between atoms: _306  and  _308
REMARK  111  A    between atoms: _308  and  _309
REMARK  112  A    between atoms: _308  and  _311
REMARK  113  A    between atoms: _311  and  _312
REMARK  114  A    between atoms: _315  and  _317
REMARK  115  A    between atoms: _317  and  _318
REMARK  116  A    between atoms: _317  and  _320
REMARK  117  A    between atoms: _320  and  _321
REMARK  118  A    between atoms: _324  and  _326
REMARK  119  A    between atoms: _326  and  _327
REMARK  120  A    between atoms: _330  and  _332
REMARK  121  A    between atoms: _332  and  _333
REMARK  122  A    between atoms: _336  and  _338
REMARK  123  A    between atoms: _338  and  _339
REMARK  124  A    between atoms: _338  and  _341
REMARK  125  A    between atoms: _341  and  _342
REMARK  126  A    between atoms: _347  and  _348
REMARK  127  A    between atoms: _350  and  _352
REMARK  128  A    between atoms: _352  and  _353
REMARK  129  A    between atoms: _352  and  _355
REMARK  130  A    between atoms: _355  and  _356
REMARK  131  A    between atoms: _359  and  _361
REMARK  132  A    between atoms: _361  and  _362
REMARK  133  A    between atoms: _361  and  _364
REMARK  134  A    between atoms: _364  and  _365
REMARK  135  A    between atoms: _368  and  _370
REMARK  136  A    between atoms: _370  and  _371
REMARK  137  A    between atoms: _370  and  _373
REMARK  138  A    between atoms: _373  and  _374
REMARK  139  A    between atoms: _374  and  _375
REMARK  140  A    between atoms: _378  and  _380
REMARK  141  A    between atoms: _380  and  _381
REMARK  142  A    between atoms: _380  and  _383
REMARK  143  A    between atoms: _383  and  _384
REMARK  144  A    between atoms: _384  and  _385
REMARK  145  A    between atoms: _385  and  _386
REMARK  146  A    between atoms: _395  and  _397
REMARK  147  A    between atoms: _397  and  _398
REMARK  148  A    between atoms: _400  and  _402
REMARK  149  A    between atoms: _402  and  _403
REMARK  150  A    between atoms: _402  and  _405
REMARK  151  A    between atoms: _405  and  _406
REMARK                            x       y       z     vdW  Elec       q    Type
REMARK                         _______ _______ _______ _____ _____    ______ ____
ROOT
ATOM      1  O   HOH     1      24.129  63.012   7.541  0.00  0.00    +0.000 OA
ENDROOT
TORSDOF 0
REMARK  Name = ../refined-set-2016/3dx2/3dx2_pocket.pdb
REMARK  151 active torsions:
REMARK  status: ('A' for Active; 'I' for Inactive)
REMARK    1  A    between atoms: _1  and  _3
REMARK    2  A    between atoms: _14  and  _17
REMARK    3  A    between atoms: _17  and  _18
REMARK    4  A    between atoms: _25  and  _26
REMARK    5  A    between atoms: _33  and  _34
REMARK    6  A    between atoms: _39  and  _41
REMARK    7  A    between atoms: _41  and  _42
REMARK    8  A    between atoms: _44  and  _46
REMARK    9  A    between atoms: _46  and  _47
REMARK   10  A    between atoms: _46  and  _49
REMARK   11  A    between atoms: _49  and  _50
REMARK   12  A    between atoms: _60  and  _62
REMARK   13  A    between atoms: _62  and  _63
REMARK   14  A    between atoms: _62  and  _65
REMARK   15  A    between atoms: _65  and  _66
REMARK   16  A    between atoms: _69  and  _71
REMARK   17  A    between atoms: _71  and  _72
REMARK   18  A    between atoms: _71  and  _74
REMARK   19  A    between atoms: _74  and  _75
REMARK   20  A    between atoms: _80  and  _81
REMARK   21  A    between atoms: _83  and  _85
REMARK   22  A    between atoms: _85  and  _86
REMARK   23  A    between atoms: _85  and  _88
REMARK   24  A    between atoms: _88  and  _89
REMARK   25  A    between atoms: _89  and  _90
REMARK   26  A    between atoms: _93  and  _95
REMARK   27  A    between atoms: _95  and  _96
REMARK   28  A    between atoms: _95  and  _98
REMARK   29  A    between atoms: _98  and  _99
REMARK   30  A    between atoms: _99  and  _100
REMARK   31  A    between atoms: _102  and  _104
REMARK   32  A    between atoms: _104  and  _105
REMARK   33  A    between atoms: _104  and  _107
REMARK   34  A    between atoms: _107  and  _108
REMARK   35  A    between atoms: _111  and  _113
REMARK   36  A    between atoms: _113  and  _114
REMARK   37  A    between atoms: _113  and  _116
REMARK   38  A    between atoms: _116  and  _117
REMARK   39  A    between atoms: _117  and  _119
REMARK   40  A    between atoms: _119  and  ZN_409
REMARK   41  A    between atoms: _121  and  _122
REMARK   42  A    between atoms: _127  and  _129
REMARK   43  A    between atoms: _129  and  _130
REMARK   44  A    between atoms: _129  and  _132
REMARK   45  A    between atoms: _132  and  _133
REMARK   46  A    between atoms: _139  and  _141
REMARK   47  A    between atoms: _141  and  _142
REMARK   48  A    between atoms: _141  and  _144
REMARK   49  A    between atoms: _144  and  _145
REMARK   50  A    between atoms: _145  and  _146
REMARK   51  A    between atoms: _146  and  _147
REMARK   52  A    between atoms: _156  and  _158
REMARK   53  A    between atoms: _158  and  _159
REMARK   54  A    between atoms: _158  and  _161
REMARK   55  A    between atoms: _161  and  _162
REMARK   56  A    between atoms: _167  and  _168
REMARK   57  A    between atoms: _170  and  _172
REMARK   58  A    between atoms: _172  and  _173
REMARK   59  A    between atoms: _172  and  _175
REMARK   60  A    between atoms: _175  and  _176
REMARK   61  A    between atoms: _178  and  _180
REMARK   62  A    between atoms: _180  and  _181
REMARK   63  A    between atoms: _180  and  _183
REMARK   64  A    between atoms: _183  and  _184
REMARK   65  A    between atoms: _189  and  _190
REMARK   66  A    between atoms: _192  and  _194
REMARK   67  A    between atoms: _194  and  _195
REMARK   68  A    between atoms: _194  and  _197
REMARK   69  A    between atoms: _197  and  _198
REMARK   70  A    between atoms: _201  and  _203
REMARK   71  A    between atoms: _203  and  _204
REMARK   72  A    between atoms: _203  and  _206
REMARK   73  A    between atoms: _206  and  _207
REMARK   74  A    between atoms: _210  and  _212
REMARK   75  A    between atoms: _212  and  _213
REMARK   76  A    between atoms: _212  and  _215
REMARK   77  A    between atoms: _215  and  _216
REMARK   78  A    between atoms: _219  and  _221
REMARK   79  A    between atoms: _221  and  _222
REMARK   80  A    between atoms: _221  and  _224
REMARK   81  A    between atoms: _224  and  _225
REMARK   82  A    between atoms: _231  and  _233
REMARK   83  A    between atoms: _233  and  _234
REMARK   84  A    between atoms: _233  and  _236
REMARK   85  A    between atoms: _236  and  _237
REMARK   86  A    between atoms: _242  and  _243
REMARK   87  A    between atoms: _245  and  _247
REMARK   88  A    between atoms: _247  and  _248
REMARK   89  A    between atoms: _247  and  _250
REMARK   90  A    between atoms: _250  and  _251
REMARK   91  A    between atoms: _254  and  _256
REMARK   92  A    between atoms: _256  and  _257
REMARK   93  A    between atoms: _256  and  _259
REMARK   94  A    between atoms: _259  and  _260
REMARK   95  A    between atoms: _270  and  _272
REMARK   96  A    between atoms: _272  and  _273
REMARK   97  A    between atoms: _272  and  _275
REMARK   98  A    between atoms: _275  and  _276
REMARK   99  A    between atoms: _281  and  _283
REMARK  100  A    between atoms: _283  and  _284
REMARK  101  A    between atoms: _283  and  _286
REMARK  102  A    between atoms: _286  and  _287
REMARK  103  A    between atoms: _291  and  ZN_409
REMARK  104  A    between atoms: _292  and  _294
REMARK  105  A    between atoms: _294  and  _295
REMARK  106  A    between atoms: _294  and  _297
REMARK  107  A    between atoms: _297  and  _298
REMARK  108  A    between atoms: _301  and  _303
REMARK  109  A    between atoms: _303  and  _304
REMARK  110  A    between atoms: _306  and  _308
REMARK  111  A    between atoms: _308  and  _309
REMARK  112  A    between atoms: _308  and  _311
REMARK  113  A    between atoms: _311  and  _312
REMARK  114  A    between atoms: _315  and  _317
REMARK  115  A    between atoms: _317  and  _318
REMARK  116  A    between atoms: _317  and  _320
REMARK  117  A    between atoms: _320  and  _321
REMARK  118  A    between atoms: _324  and  _326
REMARK  119  A    between atoms: _326  and  _327
REMARK  120  A    between atoms: _330  and  _332
REMARK  121  A    between atoms: _332  and  _333
REMARK  122  A    between atoms: _336  and  _338
REMARK  123  A    between atoms: _338  and  _339
REMARK  124  A    between atoms: _338  and  _341
REMARK  125  A    between atoms: _341  and  _342
REMARK  126  A    between atoms: _347  and  _348
REMARK  127  A    between atoms: _350  and  _352
REMARK  128  A    between atoms: _352  and  _353
REMARK  129  A    between atoms: _352  and  _355
REMARK  130  A    between atoms: _355  and  _356
REMARK  131  A    between atoms: _359  and  _361
REMARK  132  A    between atoms: _361  and  _362
REMARK  133  A    between atoms: _361  and  _364
REMARK  134  A    between atoms: _364  and  _365
REMARK  135  A    between atoms: _368  and  _370
REMARK  136  A    between atoms: _370  and  _371
REMARK  137  A    between atoms: _370  and  _373
REMARK  138  A    between atoms: _373  and  _374
REMARK  139  A    between atoms: _374  and  _375
REMARK  140  A    between atoms: _378  and  _380
REMARK  141  A    between atoms: _380  and  _381
REMARK  142  A    between atoms: _380  and  _383
REMARK  143  A    between atoms: _383  and  _384
REMARK  144  A    between atoms: _384  and  _385
REMARK  145  A    between atoms: _385  and  _386
REMARK  146  A    between atoms: _395  and  _397
REMARK  147  A    between atoms: _397  and  _398
REMARK  148  A    between atoms: _400  and  _402
REMARK  149  A    between atoms: _402  and  _403
REMARK  150  A    between atoms: _402  and  _405
REMARK  151  A    between atoms: _405  and  _406
REMARK                            x       y       z     vdW  Elec       q    Type
REMARK                         _______ _______ _______ _____ _____    ______ ____
ROOT
ATOM      1  O   HOH     1      24.572  60.941   9.220  0.00  0.00    +0.000 OA
ENDROOT
TORSDOF 0
REMARK  Name = ../refined-set-2016/3dx2/3dx2_pocket.pdb
REMARK  151 active torsions:
REMARK  status: ('A' for Active; 'I' for Inactive)
REMARK    1  A    between atoms: _1  and  _3
REMARK    2  A    between atoms: _14  and  _17
REMARK    3  A    between atoms: _17  and  _18
REMARK    4  A    between atoms: _25  and  _26
REMARK    5  A    between atoms: _33  and  _34
REMARK    6  A    between atoms: _39  and  _41
REMARK    7  A    between atoms: _41  and  _42
REMARK    8  A    between atoms: _44  and  _46
REMARK    9  A    between atoms: _46  and  _47
REMARK   10  A    between atoms: _46  and  _49
REMARK   11  A    between atoms: _49  and  _50
REMARK   12  A    between atoms: _60  and  _62
REMARK   13  A    between atoms: _62  and  _63
REMARK   14  A    between atoms: _62  and  _65
REMARK   15  A    between atoms: _65  and  _66
REMARK   16  A    between atoms: _69  and  _71
REMARK   17  A    between atoms: _71  and  _72
REMARK   18  A    between atoms: _71  and  _74
REMARK   19  A    between atoms: _74  and  _75
REMARK   20  A    between atoms: _80  and  _81
REMARK   21  A    between atoms: _83  and  _85
REMARK   22  A    between atoms: _85  and  _86
REMARK   23  A    between atoms: _85  and  _88
REMARK   24  A    between atoms: _88  and  _89
REMARK   25  A    between atoms: _89  and  _90
REMARK   26  A    between atoms: _93  and  _95
REMARK   27  A    between atoms: _95  and  _96
REMARK   28  A    between atoms: _95  and  _98
REMARK   29  A    between atoms: _98  and  _99
REMARK   30  A    between atoms: _99  and  _100
REMARK   31  A    between atoms: _102  and  _104
REMARK   32  A    between atoms: _104  and  _105
REMARK   33  A    between atoms: _104  and  _107
REMARK   34  A    between atoms: _107  and  _108
REMARK   35  A    between atoms: _111  and  _113
REMARK   36  A    between atoms: _113  and  _114
REMARK   37  A    between atoms: _113  and  _116
REMARK   38  A    between atoms: _116  and  _117
REMARK   39  A    between atoms: _117  and  _119
REMARK   40  A    between atoms: _119  and  ZN_409
REMARK   41  A    between atoms: _121  and  _122
REMARK   42  A    between atoms: _127  and  _129
REMARK   43  A    between atoms: _129  and  _130
REMARK   44  A    between atoms: _129  and  _132
REMARK   45  A    between atoms: _132  and  _133
REMARK   46  A    between atoms: _139  and  _141
REMARK   47  A    between atoms: _141  and  _142
REMARK   48  A    between atoms: _141  and  _144
REMARK   49  A    between atoms: _144  and  _145
REMARK   50  A    between atoms: _145  and  _146
REMARK   51  A    between atoms: _146  and  _147
REMARK   52  A    between atoms: _156  and  _158
REMARK   53  A    between atoms: _158  and  _159
REMARK   54  A    between atoms: _158  and  _161
REMARK   55  A    between atoms: _161  and  _162
REMARK   56  A    between atoms: _167  and  _168
REMARK   57  A    between atoms: _170  and  _172
REMARK   58  A    between atoms: _172  and  _173
REMARK   59  A    between atoms: _172  and  _175
REMARK   60  A    between atoms: _175  and  _176
REMARK   61  A    between atoms: _178  and  _180
REMARK   62  A    between atoms: _180  and  _181
REMARK   63  A    between atoms: _180  and  _183
REMARK   64  A    between atoms: _183  and  _184
REMARK   65  A    between atoms: _189  and  _190
REMARK   66  A    between atoms: _192  and  _194
REMARK   67  A    between atoms: _194  and  _195
REMARK   68  A    between atoms: _194  and  _197
REMARK   69  A    between atoms: _197  and  _198
REMARK   70  A    between atoms: _201  and  _203
REMARK   71  A    between atoms: _203  and  _204
REMARK   72  A    between atoms: _203  and  _206
REMARK   73  A    between atoms: _206  and  _207
REMARK   74  A    between atoms: _210  and  _212
REMARK   75  A    between atoms: _212  and  _213
REMARK   76  A    between atoms: _212  and  _215
REMARK   77  A    between atoms: _215  and  _216
REMARK   78  A    between atoms: _219  and  _221
REMARK   79  A    between atoms: _221  and  _222
REMARK   80  A    between atoms: _221  and  _224
REMARK   81  A    between atoms: _224  and  _225
REMARK   82  A    between atoms: _231  and  _233
REMARK   83  A    between atoms: _233  and  _234
REMARK   84  A    between atoms: _233  and  _236
REMARK   85  A    between atoms: _236  and  _237
REMARK   86  A    between atoms: _242  and  _243
REMARK   87  A    between atoms: _245  and  _247
REMARK   88  A    between atoms: _247  and  _248
REMARK   89  A    between atoms: _247  and  _250
REMARK   90  A    between atoms: _250  and  _251
REMARK   91  A    between atoms: _254  and  _256
REMARK   92  A    between atoms: _256  and  _257
REMARK   93  A    between atoms: _256  and  _259
REMARK   94  A    between atoms: _259  and  _260
REMARK   95  A    between atoms: _270  and  _272
REMARK   96  A    between atoms: _272  and  _273
REMARK   97  A    between atoms: _272  and  _275
REMARK   98  A    between atoms: _275  and  _276
REMARK   99  A    between atoms: _281  and  _283
REMARK  100  A    between atoms: _283  and  _284
REMARK  101  A    between atoms: _283  and  _286
REMARK  102  A    between atoms: _286  and  _287
REMARK  103  A    between atoms: _291  and  ZN_409
REMARK  104  A    between atoms: _292  and  _294
REMARK  105  A    between atoms: _294  and  _295
REMARK  106  A    between atoms: _294  and  _297
REMARK  107  A    between atoms: _297  and  _298
REMARK  108  A    between atoms: _301  and  _303
REMARK  109  A    between atoms: _303  and  _304
REMARK  110  A    between atoms: _306  and  _308
REMARK  111  A    between atoms: _308  and  _309
REMARK  112  A    between atoms: _308  and  _311
REMARK  113  A    between atoms: _311  and  _312
REMARK  114  A    between atoms: _315  and  _317
REMARK  115  A    between atoms: _317  and  _318
REMARK  116  A    between atoms: _317  and  _320
REMARK  117  A    between atoms: _320  and  _321
REMARK  118  A    between atoms: _324  and  _326
REMARK  119  A    between atoms: _326  and  _327
REMARK  120  A    between atoms: _330  and  _332
REMARK  121  A    between atoms: _332  and  _333
REMARK  122  A    between atoms: _336  and  _338
REMARK  123  A    between atoms: _338  and  _339
REMARK  124  A    between atoms: _338  and  _341
REMARK  125  A    between atoms: _341  and  _342
REMARK  126  A    between atoms: _347  and  _348
REMARK  127  A    between atoms: _350  and  _352
REMARK  128  A    between atoms: _352  and  _353
REMARK  129  A    between atoms: _352  and  _355
REMARK  130  A    between atoms: _355  and  _356
REMARK  131  A    between atoms: _359  and  _361
REMARK  132  A    between atoms: _361  and  _362
REMARK  133  A    between atoms: _361  and  _364
REMARK  134  A    between atoms: _364  and  _365
REMARK  135  A    between atoms: _368  and  _370
REMARK  136  A    between atoms: _370  and  _371
REMARK  137  A    between atoms: _370  and  _373
REMARK  138  A    between atoms: _373  and  _374
REMARK  139  A    between atoms: _374  and  _375
REMARK  140  A    between atoms: _378  and  _380
REMARK  141  A    between atoms: _380  and  _381
REMARK  142  A    between atoms: _380  and  _383
REMARK  143  A    between atoms: _383  and  _384
REMARK  144  A    between atoms: _384  and  _385
REMARK  145  A    between atoms: _385  and  _386
REMARK  146  A    between atoms: _395  and  _397
REMARK  147  A    between atoms: _397  and  _398
REMARK  148  A    between atoms: _400  and  _402
REMARK  149  A    between atoms: _402  and  _403
REMARK  150  A    between atoms: _402  and  _405
REMARK  151  A    between atoms: _405  and  _406
REMARK                            x       y       z     vdW  Elec       q    Type
REMARK                         _______ _______ _______ _____ _____    ______ ____
ROOT
ATOM      1  O   HOH     1      27.010  60.775  10.434  0.00  0.00    +0.000 OA
ENDROOT
TORSDOF 0
REMARK  Name = ../refined-set-2016/3dx2/3dx2_pocket.pdb
REMARK  151 active torsions:
REMARK  status: ('A' for Active; 'I' for Inactive)
REMARK    1  A    between atoms: _1  and  _3
REMARK    2  A    between atoms: _14  and  _17
REMARK    3  A    between atoms: _17  and  _18
REMARK    4  A    between atoms: _25  and  _26
REMARK    5  A    between atoms: _33  and  _34
REMARK    6  A    between atoms: _39  and  _41
REMARK    7  A    between atoms: _41  and  _42
REMARK    8  A    between atoms: _44  and  _46
REMARK    9  A    between atoms: _46  and  _47
REMARK   10  A    between atoms: _46  and  _49
REMARK   11  A    between atoms: _49  and  _50
REMARK   12  A    between atoms: _60  and  _62
REMARK   13  A    between atoms: _62  and  _63
REMARK   14  A    between atoms: _62  and  _65
REMARK   15  A    between atoms: _65  and  _66
REMARK   16  A    between atoms: _69  and  _71
REMARK   17  A    between atoms: _71  and  _72
REMARK   18  A    between atoms: _71  and  _74
REMARK   19  A    between atoms: _74  and  _75
REMARK   20  A    between atoms: _80  and  _81
REMARK   21  A    between atoms: _83  and  _85
REMARK   22  A    between atoms: _85  and  _86
REMARK   23  A    between atoms: _85  and  _88
REMARK   24  A    between atoms: _88  and  _89
REMARK   25  A    between atoms: _89  and  _90
REMARK   26  A    between atoms: _93  and  _95
REMARK   27  A    between atoms: _95  and  _96
REMARK   28  A    between atoms: _95  and  _98
REMARK   29  A    between atoms: _98  and  _99
REMARK   30  A    between atoms: _99  and  _100
REMARK   31  A    between atoms: _102  and  _104
REMARK   32  A    between atoms: _104  and  _105
REMARK   33  A    between atoms: _104  and  _107
REMARK   34  A    between atoms: _107  and  _108
REMARK   35  A    between atoms: _111  and  _113
REMARK   36  A    between atoms: _113  and  _114
REMARK   37  A    between atoms: _113  and  _116
REMARK   38  A    between atoms: _116  and  _117
REMARK   39  A    between atoms: _117  and  _119
REMARK   40  A    between atoms: _119  and  ZN_409
REMARK   41  A    between atoms: _121  and  _122
REMARK   42  A    between atoms: _127  and  _129
REMARK   43  A    between atoms: _129  and  _130
REMARK   44  A    between atoms: _129  and  _132
REMARK   45  A    between atoms: _132  and  _133
REMARK   46  A    between atoms: _139  and  _141
REMARK   47  A    between atoms: _141  and  _142
REMARK   48  A    between atoms: _141  and  _144
REMARK   49  A    between atoms: _144  and  _145
REMARK   50  A    between atoms: _145  and  _146
REMARK   51  A    between atoms: _146  and  _147
REMARK   52  A    between atoms: _156  and  _158
REMARK   53  A    between atoms: _158  and  _159
REMARK   54  A    between atoms: _158  and  _161
REMARK   55  A    between atoms: _161  and  _162
REMARK   56  A    between atoms: _167  and  _168
REMARK   57  A    between atoms: _170  and  _172
REMARK   58  A    between atoms: _172  and  _173
REMARK   59  A    between atoms: _172  and  _175
REMARK   60  A    between atoms: _175  and  _176
REMARK   61  A    between atoms: _178  and  _180
REMARK   62  A    between atoms: _180  and  _181
REMARK   63  A    between atoms: _180  and  _183
REMARK   64  A    between atoms: _183  and  _184
REMARK   65  A    between atoms: _189  and  _190
REMARK   66  A    between atoms: _192  and  _194
REMARK   67  A    between atoms: _194  and  _195
REMARK   68  A    between atoms: _194  and  _197
REMARK   69  A    between atoms: _197  and  _198
REMARK   70  A    between atoms: _201  and  _203
REMARK   71  A    between atoms: _203  and  _204
REMARK   72  A    between atoms: _203  and  _206
REMARK   73  A    between atoms: _206  and  _207
REMARK   74  A    between atoms: _210  and  _212
REMARK   75  A    between atoms: _212  and  _213
REMARK   76  A    between atoms: _212  and  _215
REMARK   77  A    between atoms: _215  and  _216
REMARK   78  A    between atoms: _219  and  _221
REMARK   79  A    between atoms: _221  and  _222
REMARK   80  A    between atoms: _221  and  _224
REMARK   81  A    between atoms: _224  and  _225
REMARK   82  A    between atoms: _231  and  _233
REMARK   83  A    between atoms: _233  and  _234
REMARK   84  A    between atoms: _233  and  _236
REMARK   85  A    between atoms: _236  and  _237
REMARK   86  A    between atoms: _242  and  _243
REMARK   87  A    between atoms: _245  and  _247
REMARK   88  A    between atoms: _247  and  _248
REMARK   89  A    between atoms: _247  and  _250
REMARK   90  A    between atoms: _250  and  _251
REMARK   91  A    between atoms: _254  and  _256
REMARK   92  A    between atoms: _256  and  _257
REMARK   93  A    between atoms: _256  and  _259
REMARK   94  A    between atoms: _259  and  _260
REMARK   95  A    between atoms: _270  and  _272
REMARK   96  A    between atoms: _272  and  _273
REMARK   97  A    between atoms: _272  and  _275
REMARK   98  A    between atoms: _275  and  _276
REMARK   99  A    between atoms: _281  and  _283
REMARK  100  A    between atoms: _283  and  _284
REMARK  101  A    between atoms: _283  and  _286
REMARK  102  A    between atoms: _286  and  _287
REMARK  103  A    between atoms: _291  and  ZN_409
REMARK  104  A    between atoms: _292  and  _294
REMARK  105  A    between atoms: _294  and  _295
REMARK  106  A    between atoms: _294  and  _297
REMARK  107  A    between atoms: _297  and  _298
REMARK  108  A    between atoms: _301  and  _303
REMARK  109  A    between atoms: _303  and  _304
REMARK  110  A    between atoms: _306  and  _308
REMARK  111  A    between atoms: _308  and  _309
REMARK  112  A    between atoms: _308  and  _311
REMARK  113  A    between atoms: _311  and  _312
REMARK  114  A    between atoms: _315  and  _317
REMARK  115  A    between atoms: _317  and  _318
REMARK  116  A    between atoms: _317  and  _320
REMARK  117  A    between atoms: _320  and  _321
REMARK  118  A    between atoms: _324  and  _326
REMARK  119  A    between atoms: _326  and  _327
REMARK  120  A    between atoms: _330  and  _332
REMARK  121  A    between atoms: _332  and  _333
REMARK  122  A    between atoms: _336  and  _338
REMARK  123  A    between atoms: _338  and  _339
REMARK  124  A    between atoms: _338  and  _341
REMARK  125  A    between atoms: _341  and  _342
REMARK  126  A    between atoms: _347  and  _348
REMARK  127  A    between atoms: _350  and  _352
REMARK  128  A    between atoms: _352  and  _353
REMARK  129  A    between atoms: _352  and  _355
REMARK  130  A    between atoms: _355  and  _356
REMARK  131  A    between atoms: _359  and  _361
REMARK  132  A    between atoms: _361  and  _362
REMARK  133  A    between atoms: _361  and  _364
REMARK  134  A    between atoms: _364  and  _365
REMARK  135  A    between atoms: _368  and  _370
REMARK  136  A    between atoms: _370  and  _371
REMARK  137  A    between atoms: _370  and  _373
REMARK  138  A    between atoms: _373  and  _374
REMARK  139  A    between atoms: _374  and  _375
REMARK  140  A    between atoms: _378  and  _380
REMARK  141  A    between atoms: _380  and  _381
REMARK  142  A    between atoms: _380  and  _383
REMARK  143  A    between atoms: _383  and  _384
REMARK  144  A    between atoms: _384  and  _385
REMARK  145  A    between atoms: _385  and  _386
REMARK  146  A    between atoms: _395  and  _397
REMARK  147  A    between atoms: _397  and  _398
REMARK  148  A    between atoms: _400  and  _402
REMARK  149  A    between atoms: _402  and  _403
REMARK  150  A    between atoms: _402  and  _405
REMARK  151  A    between atoms: _405  and  _406
REMARK                            x       y       z     vdW  Elec       q    Type
REMARK                         _______ _______ _______ _____ _____    ______ ____
ROOT
ATOM      1  O   HOH     1      27.116  58.868   8.564  0.00  0.00    +0.000 OA
ENDROOT
TORSDOF 0
REMARK  Name = ../refined-set-2016/3dx2/3dx2_pocket.pdb
REMARK  151 active torsions:
REMARK  status: ('A' for Active; 'I' for Inactive)
REMARK    1  A    between atoms: _1  and  _3
REMARK    2  A    between atoms: _14  and  _17
REMARK    3  A    between atoms: _17  and  _18
REMARK    4  A    between atoms: _25  and  _26
REMARK    5  A    between atoms: _33  and  _34
REMARK    6  A    between atoms: _39  and  _41
REMARK    7  A    between atoms: _41  and  _42
REMARK    8  A    between atoms: _44  and  _46
REMARK    9  A    between atoms: _46  and  _47
REMARK   10  A    between atoms: _46  and  _49
REMARK   11  A    between atoms: _49  and  _50
REMARK   12  A    between atoms: _60  and  _62
REMARK   13  A    between atoms: _62  and  _63
REMARK   14  A    between atoms: _62  and  _65
REMARK   15  A    between atoms: _65  and  _66
REMARK   16  A    between atoms: _69  and  _71
REMARK   17  A    between atoms: _71  and  _72
REMARK   18  A    between atoms: _71  and  _74
REMARK   19  A    between atoms: _74  and  _75
REMARK   20  A    between atoms: _80  and  _81
REMARK   21  A    between atoms: _83  and  _85
REMARK   22  A    between atoms: _85  and  _86
REMARK   23  A    between atoms: _85  and  _88
REMARK   24  A    between atoms: _88  and  _89
REMARK   25  A    between atoms: _89  and  _90
REMARK   26  A    between atoms: _93  and  _95
REMARK   27  A    between atoms: _95  and  _96
REMARK   28  A    between atoms: _95  and  _98
REMARK   29  A    between atoms: _98  and  _99
REMARK   30  A    between atoms: _99  and  _100
REMARK   31  A    between atoms: _102  and  _104
REMARK   32  A    between atoms: _104  and  _105
REMARK   33  A    between atoms: _104  and  _107
REMARK   34  A    between atoms: _107  and  _108
REMARK   35  A    between atoms: _111  and  _113
REMARK   36  A    between atoms: _113  and  _114
REMARK   37  A    between atoms: _113  and  _116
REMARK   38  A    between atoms: _116  and  _117
REMARK   39  A    between atoms: _117  and  _119
REMARK   40  A    between atoms: _119  and  ZN_409
REMARK   41  A    between atoms: _121  and  _122
REMARK   42  A    between atoms: _127  and  _129
REMARK   43  A    between atoms: _129  and  _130
REMARK   44  A    between atoms: _129  and  _132
REMARK   45  A    between atoms: _132  and  _133
REMARK   46  A    between atoms: _139  and  _141
REMARK   47  A    between atoms: _141  and  _142
REMARK   48  A    between atoms: _141  and  _144
REMARK   49  A    between atoms: _144  and  _145
REMARK   50  A    between atoms: _145  and  _146
REMARK   51  A    between atoms: _146  and  _147
REMARK   52  A    between atoms: _156  and  _158
REMARK   53  A    between atoms: _158  and  _159
REMARK   54  A    between atoms: _158  and  _161
REMARK   55  A    between atoms: _161  and  _162
REMARK   56  A    between atoms: _167  and  _168
REMARK   57  A    between atoms: _170  and  _172
REMARK   58  A    between atoms: _172  and  _173
REMARK   59  A    between atoms: _172  and  _175
REMARK   60  A    between atoms: _175  and  _176
REMARK   61  A    between atoms: _178  and  _180
REMARK   62  A    between atoms: _180  and  _181
REMARK   63  A    between atoms: _180  and  _183
REMARK   64  A    between atoms: _183  and  _184
REMARK   65  A    between atoms: _189  and  _190
REMARK   66  A    between atoms: _192  and  _194
REMARK   67  A    between atoms: _194  and  _195
REMARK   68  A    between atoms: _194  and  _197
REMARK   69  A    between atoms: _197  and  _198
REMARK   70  A    between atoms: _201  and  _203
REMARK   71  A    between atoms: _203  and  _204
REMARK   72  A    between atoms: _203  and  _206
REMARK   73  A    between atoms: _206  and  _207
REMARK   74  A    between atoms: _210  and  _212
REMARK   75  A    between atoms: _212  and  _213
REMARK   76  A    between atoms: _212  and  _215
REMARK   77  A    between atoms: _215  and  _216
REMARK   78  A    between atoms: _219  and  _221
REMARK   79  A    between atoms: _221  and  _222
REMARK   80  A    between atoms: _221  and  _224
REMARK   81  A    between atoms: _224  and  _225
REMARK   82  A    between atoms: _231  and  _233
REMARK   83  A    between atoms: _233  and  _234
REMARK   84  A    between atoms: _233  and  _236
REMARK   85  A    between atoms: _236  and  _237
REMARK   86  A    between atoms: _242  and  _243
REMARK   87  A    between atoms: _245  and  _247
REMARK   88  A    between atoms: _247  and  _248
REMARK   89  A    between atoms: _247  and  _250
REMARK   90  A    between atoms: _250  and  _251
REMARK   91  A    between atoms: _254  and  _256
REMARK   92  A    between atoms: _256  and  _257
REMARK   93  A    between atoms: _256  and  _259
REMARK   94  A    between atoms: _259  and  _260
REMARK   95  A    between atoms: _270  and  _272
REMARK   96  A    between atoms: _272  and  _273
REMARK   97  A    between atoms: _272  and  _275
REMARK   98  A    between atoms: _275  and  _276
REMARK   99  A    between atoms: _281  and  _283
REMARK  100  A    between atoms: _283  and  _284
REMARK  101  A    between atoms: _283  and  _286
REMARK  102  A    between atoms: _286  and  _287
REMARK  103  A    between atoms: _291  and  ZN_409
REMARK  104  A    between atoms: _292  and  _294
REMARK  105  A    between atoms: _294  and  _295
REMARK  106  A    between atoms: _294  and  _297
REMARK  107  A    between atoms: _297  and  _298
REMARK  108  A    between atoms: _301  and  _303
REMARK  109  A    between atoms: _303  and  _304
REMARK  110  A    between atoms: _306  and  _308
REMARK  111  A    between atoms: _308  and  _309
REMARK  112  A    between atoms: _308  and  _311
REMARK  113  A    between atoms: _311  and  _312
REMARK  114  A    between atoms: _315  and  _317
REMARK  115  A    between atoms: _317  and  _318
REMARK  116  A    between atoms: _317  and  _320
REMARK  117  A    between atoms: _320  and  _321
REMARK  118  A    between atoms: _324  and  _326
REMARK  119  A    between atoms: _326  and  _327
REMARK  120  A    between atoms: _330  and  _332
REMARK  121  A    between atoms: _332  and  _333
REMARK  122  A    between atoms: _336  and  _338
REMARK  123  A    between atoms: _338  and  _339
REMARK  124  A    between atoms: _338  and  _341
REMARK  125  A    between atoms: _341  and  _342
REMARK  126  A    between atoms: _347  and  _348
REMARK  127  A    between atoms: _350  and  _352
REMARK  128  A    between atoms: _352  and  _353
REMARK  129  A    between atoms: _352  and  _355
REMARK  130  A    between atoms: _355  and  _356
REMARK  131  A    between atoms: _359  and  _361
REMARK  132  A    between atoms: _361  and  _362
REMARK  133  A    between atoms: _361  and  _364
REMARK  134  A    between atoms: _364  and  _365
REMARK  135  A    between atoms: _368  and  _370
REMARK  136  A    between atoms: _370  and  _371
REMARK  137  A    between atoms: _370  and  _373
REMARK  138  A    between atoms: _373  and  _374
REMARK  139  A    between atoms: _374  and  _375
REMARK  140  A    between atoms: _378  and  _380
REMARK  141  A    between atoms: _380  and  _381
REMARK  142  A    between atoms: _380  and  _383
REMARK  143  A    between atoms: _383  and  _384
REMARK  144  A    between atoms: _384  and  _385
REMARK  145  A    between atoms: _385  and  _386
REMARK  146  A    between atoms: _395  and  _397
REMARK  147  A    between atoms: _397  and  _398
REMARK  148  A    between atoms: _400  and  _402
REMARK  149  A    between atoms: _402  and  _403
REMARK  150  A    between atoms: _402  and  _405
REMARK  151  A    between atoms: _405  and  _406
REMARK                            x       y       z     vdW  Elec       q    Type
REMARK                         _______ _______ _______ _____ _____    ______ ____
ROOT
ATOM      1  O   HOH     1      25.697  62.763  13.630  0.00  0.00    +0.000 OA
ENDROOT
TORSDOF 0
REMARK  Name = ../refined-set-2016/3dx2/3dx2_pocket.pdb
REMARK  151 active torsions:
REMARK  status: ('A' for Active; 'I' for Inactive)
REMARK    1  A    between atoms: _1  and  _3
REMARK    2  A    between atoms: _14  and  _17
REMARK    3  A    between atoms: _17  and  _18
REMARK    4  A    between atoms: _25  and  _26
REMARK    5  A    between atoms: _33  and  _34
REMARK    6  A    between atoms: _39  and  _41
REMARK    7  A    between atoms: _41  and  _42
REMARK    8  A    between atoms: _44  and  _46
REMARK    9  A    between atoms: _46  and  _47
REMARK   10  A    between atoms: _46  and  _49
REMARK   11  A    between atoms: _49  and  _50
REMARK   12  A    between atoms: _60  and  _62
REMARK   13  A    between atoms: _62  and  _63
REMARK   14  A    between atoms: _62  and  _65
REMARK   15  A    between atoms: _65  and  _66
REMARK   16  A    between atoms: _69  and  _71
REMARK   17  A    between atoms: _71  and  _72
REMARK   18  A    between atoms: _71  and  _74
REMARK   19  A    between atoms: _74  and  _75
REMARK   20  A    between atoms: _80  and  _81
REMARK   21  A    between atoms: _83  and  _85
REMARK   22  A    between atoms: _85  and  _86
REMARK   23  A    between atoms: _85  and  _88
REMARK   24  A    between atoms: _88  and  _89
REMARK   25  A    between atoms: _89  and  _90
REMARK   26  A    between atoms: _93  and  _95
REMARK   27  A    between atoms: _95  and  _96
REMARK   28  A    between atoms: _95  and  _98
REMARK   29  A    between atoms: _98  and  _99
REMARK   30  A    between atoms: _99  and  _100
REMARK   31  A    between atoms: _102  and  _104
REMARK   32  A    between atoms: _104  and  _105
REMARK   33  A    between atoms: _104  and  _107
REMARK   34  A    between atoms: _107  and  _108
REMARK   35  A    between atoms: _111  and  _113
REMARK   36  A    between atoms: _113  and  _114
REMARK   37  A    between atoms: _113  and  _116
REMARK   38  A    between atoms: _116  and  _117
REMARK   39  A    between atoms: _117  and  _119
REMARK   40  A    between atoms: _119  and  ZN_409
REMARK   41  A    between atoms: _121  and  _122
REMARK   42  A    between atoms: _127  and  _129
REMARK   43  A    between atoms: _129  and  _130
REMARK   44  A    between atoms: _129  and  _132
REMARK   45  A    between atoms: _132  and  _133
REMARK   46  A    between atoms: _139  and  _141
REMARK   47  A    between atoms: _141  and  _142
REMARK   48  A    between atoms: _141  and  _144
REMARK   49  A    between atoms: _144  and  _145
REMARK   50  A    between atoms: _145  and  _146
REMARK   51  A    between atoms: _146  and  _147
REMARK   52  A    between atoms: _156  and  _158
REMARK   53  A    between atoms: _158  and  _159
REMARK   54  A    between atoms: _158  and  _161
REMARK   55  A    between atoms: _161  and  _162
REMARK   56  A    between atoms: _167  and  _168
REMARK   57  A    between atoms: _170  and  _172
REMARK   58  A    between atoms: _172  and  _173
REMARK   59  A    between atoms: _172  and  _175
REMARK   60  A    between atoms: _175  and  _176
REMARK   61  A    between atoms: _178  and  _180
REMARK   62  A    between atoms: _180  and  _181
REMARK   63  A    between atoms: _180  and  _183
REMARK   64  A    between atoms: _183  and  _184
REMARK   65  A    between atoms: _189  and  _190
REMARK   66  A    between atoms: _192  and  _194
REMARK   67  A    between atoms: _194  and  _195
REMARK   68  A    between atoms: _194  and  _197
REMARK   69  A    between atoms: _197  and  _198
REMARK   70  A    between atoms: _201  and  _203
REMARK   71  A    between atoms: _203  and  _204
REMARK   72  A    between atoms: _203  and  _206
REMARK   73  A    between atoms: _206  and  _207
REMARK   74  A    between atoms: _210  and  _212
REMARK   75  A    between atoms: _212  and  _213
REMARK   76  A    between atoms: _212  and  _215
REMARK   77  A    between atoms: _215  and  _216
REMARK   78  A    between atoms: _219  and  _221
REMARK   79  A    between atoms: _221  and  _222
REMARK   80  A    between atoms: _221  and  _224
REMARK   81  A    between atoms: _224  and  _225
REMARK   82  A    between atoms: _231  and  _233
REMARK   83  A    between atoms: _233  and  _234
REMARK   84  A    between atoms: _233  and  _236
REMARK   85  A    between atoms: _236  and  _237
REMARK   86  A    between atoms: _242  and  _243
REMARK   87  A    between atoms: _245  and  _247
REMARK   88  A    between atoms: _247  and  _248
REMARK   89  A    between atoms: _247  and  _250
REMARK   90  A    between atoms: _250  and  _251
REMARK   91  A    between atoms: _254  and  _256
REMARK   92  A    between atoms: _256  and  _257
REMARK   93  A    between atoms: _256  and  _259
REMARK   94  A    between atoms: _259  and  _260
REMARK   95  A    between atoms: _270  and  _272
REMARK   96  A    between atoms: _272  and  _273
REMARK   97  A    between atoms: _272  and  _275
REMARK   98  A    between atoms: _275  and  _276
REMARK   99  A    between atoms: _281  and  _283
REMARK  100  A    between atoms: _283  and  _284
REMARK  101  A    between atoms: _283  and  _286
REMARK  102  A    between atoms: _286  and  _287
REMARK  103  A    between atoms: _291  and  ZN_409
REMARK  104  A    between atoms: _292  and  _294
REMARK  105  A    between atoms: _294  and  _295
REMARK  106  A    between atoms: _294  and  _297
REMARK  107  A    between atoms: _297  and  _298
REMARK  108  A    between atoms: _301  and  _303
REMARK  109  A    between atoms: _303  and  _304
REMARK  110  A    between atoms: _306  and  _308
REMARK  111  A    between atoms: _308  and  _309
REMARK  112  A    between atoms: _308  and  _311
REMARK  113  A    between atoms: _311  and  _312
REMARK  114  A    between atoms: _315  and  _317
REMARK  115  A    between atoms: _317  and  _318
REMARK  116  A    between atoms: _317  and  _320
REMARK  117  A    between atoms: _320  and  _321
REMARK  118  A    between atoms: _324  and  _326
REMARK  119  A    between atoms: _326  and  _327
REMARK  120  A    between atoms: _330  and  _332
REMARK  121  A    between atoms: _332  and  _333
REMARK  122  A    between atoms: _336  and  _338
REMARK  123  A    between atoms: _338  and  _339
REMARK  124  A    between atoms: _338  and  _341
REMARK  125  A    between atoms: _341  and  _342
REMARK  126  A    between atoms: _347  and  _348
REMARK  127  A    between atoms: _350  and  _352
REMARK  128  A    between atoms: _352  and  _353
REMARK  129  A    between atoms: _352  and  _355
REMARK  130  A    between atoms: _355  and  _356
REMARK  131  A    between atoms: _359  and  _361
REMARK  132  A    between atoms: _361  and  _362
REMARK  133  A    between atoms: _361  and  _364
REMARK  134  A    between atoms: _364  and  _365
REMARK  135  A    between atoms: _368  and  _370
REMARK  136  A    between atoms: _370  and  _371
REMARK  137  A    between atoms: _370  and  _373
REMARK  138  A    between atoms: _373  and  _374
REMARK  139  A    between atoms: _374  and  _375
REMARK  140  A    between atoms: _378  and  _380
REMARK  141  A    between atoms: _380  and  _381
REMARK  142  A    between atoms: _380  and  _383
REMARK  143  A    between atoms: _383  and  _384
REMARK  144  A    between atoms: _384  and  _385
REMARK  145  A    between atoms: _385  and  _386
REMARK  146  A    between atoms: _395  and  _397
REMARK  147  A    between atoms: _397  and  _398
REMARK  148  A    between atoms: _400  and  _402
REMARK  149  A    between atoms: _402  and  _403
REMARK  150  A    between atoms: _402  and  _405
REMARK  151  A    between atoms: _405  and  _406
REMARK                            x       y       z     vdW  Elec       q    Type
REMARK                         _______ _______ _______ _____ _____    ______ ____
ROOT
ATOM      1  O   HOH     1      24.349  62.876  11.554  0.00  0.00    +0.000 OA
ENDROOT
TORSDOF 0
REMARK  Name = ../refined-set-2016/3dx2/3dx2_pocket.pdb
REMARK  151 active torsions:
REMARK  status: ('A' for Active; 'I' for Inactive)
REMARK    1  A    between atoms: _1  and  _3
REMARK    2  A    between atoms: _14  and  _17
REMARK    3  A    between atoms: _17  and  _18
REMARK    4  A    between atoms: _25  and  _26
REMARK    5  A    between atoms: _33  and  _34
REMARK    6  A    between atoms: _39  and  _41
REMARK    7  A    between atoms: _41  and  _42
REMARK    8  A    between atoms: _44  and  _46
REMARK    9  A    between atoms: _46  and  _47
REMARK   10  A    between atoms: _46  and  _49
REMARK   11  A    between atoms: _49  and  _50
REMARK   12  A    between atoms: _60  and  _62
REMARK   13  A    between atoms: _62  and  _63
REMARK   14  A    between atoms: _62  and  _65
REMARK   15  A    between atoms: _65  and  _66
REMARK   16  A    between atoms: _69  and  _71
REMARK   17  A    between atoms: _71  and  _72
REMARK   18  A    between atoms: _71  and  _74
REMARK   19  A    between atoms: _74  and  _75
REMARK   20  A    between atoms: _80  and  _81
REMARK   21  A    between atoms: _83  and  _85
REMARK   22  A    between atoms: _85  and  _86
REMARK   23  A    between atoms: _85  and  _88
REMARK   24  A    between atoms: _88  and  _89
REMARK   25  A    between atoms: _89  and  _90
REMARK   26  A    between atoms: _93  and  _95
REMARK   27  A    between atoms: _95  and  _96
REMARK   28  A    between atoms: _95  and  _98
REMARK   29  A    between atoms: _98  and  _99
REMARK   30  A    between atoms: _99  and  _100
REMARK   31  A    between atoms: _102  and  _104
REMARK   32  A    between atoms: _104  and  _105
REMARK   33  A    between atoms: _104  and  _107
REMARK   34  A    between atoms: _107  and  _108
REMARK   35  A    between atoms: _111  and  _113
REMARK   36  A    between atoms: _113  and  _114
REMARK   37  A    between atoms: _113  and  _116
REMARK   38  A    between atoms: _116  and  _117
REMARK   39  A    between atoms: _117  and  _119
REMARK   40  A    between atoms: _119  and  ZN_409
REMARK   41  A    between atoms: _121  and  _122
REMARK   42  A    between atoms: _127  and  _129
REMARK   43  A    between atoms: _129  and  _130
REMARK   44  A    between atoms: _129  and  _132
REMARK   45  A    between atoms: _132  and  _133
REMARK   46  A    between atoms: _139  and  _141
REMARK   47  A    between atoms: _141  and  _142
REMARK   48  A    between atoms: _141  and  _144
REMARK   49  A    between atoms: _144  and  _145
REMARK   50  A    between atoms: _145  and  _146
REMARK   51  A    between atoms: _146  and  _147
REMARK   52  A    between atoms: _156  and  _158
REMARK   53  A    between atoms: _158  and  _159
REMARK   54  A    between atoms: _158  and  _161
REMARK   55  A    between atoms: _161  and  _162
REMARK   56  A    between atoms: _167  and  _168
REMARK   57  A    between atoms: _170  and  _172
REMARK   58  A    between atoms: _172  and  _173
REMARK   59  A    between atoms: _172  and  _175
REMARK   60  A    between atoms: _175  and  _176
REMARK   61  A    between atoms: _178  and  _180
REMARK   62  A    between atoms: _180  and  _181
REMARK   63  A    between atoms: _180  and  _183
REMARK   64  A    between atoms: _183  and  _184
REMARK   65  A    between atoms: _189  and  _190
REMARK   66  A    between atoms: _192  and  _194
REMARK   67  A    between atoms: _194  and  _195
REMARK   68  A    between atoms: _194  and  _197
REMARK   69  A    between atoms: _197  and  _198
REMARK   70  A    between atoms: _201  and  _203
REMARK   71  A    between atoms: _203  and  _204
REMARK   72  A    between atoms: _203  and  _206
REMARK   73  A    between atoms: _206  and  _207
REMARK   74  A    between atoms: _210  and  _212
REMARK   75  A    between atoms: _212  and  _213
REMARK   76  A    between atoms: _212  and  _215
REMARK   77  A    between atoms: _215  and  _216
REMARK   78  A    between atoms: _219  and  _221
REMARK   79  A    between atoms: _221  and  _222
REMARK   80  A    between atoms: _221  and  _224
REMARK   81  A    between atoms: _224  and  _225
REMARK   82  A    between atoms: _231  and  _233
REMARK   83  A    between atoms: _233  and  _234
REMARK   84  A    between atoms: _233  and  _236
REMARK   85  A    between atoms: _236  and  _237
REMARK   86  A    between atoms: _242  and  _243
REMARK   87  A    between atoms: _245  and  _247
REMARK   88  A    between atoms: _247  and  _248
REMARK   89  A    between atoms: _247  and  _250
REMARK   90  A    between atoms: _250  and  _251
REMARK   91  A    between atoms: _254  and  _256
REMARK   92  A    between atoms: _256  and  _257
REMARK   93  A    between atoms: _256  and  _259
REMARK   94  A    between atoms: _259  and  _260
REMARK   95  A    between atoms: _270  and  _272
REMARK   96  A    between atoms: _272  and  _273
REMARK   97  A    between atoms: _272  and  _275
REMARK   98  A    between atoms: _275  and  _276
REMARK   99  A    between atoms: _281  and  _283
REMARK  100  A    between atoms: _283  and  _284
REMARK  101  A    between atoms: _283  and  _286
REMARK  102  A    between atoms: _286  and  _287
REMARK  103  A    between atoms: _291  and  ZN_409
REMARK  104  A    between atoms: _292  and  _294
REMARK  105  A    between atoms: _294  and  _295
REMARK  106  A    between atoms: _294  and  _297
REMARK  107  A    between atoms: _297  and  _298
REMARK  108  A    between atoms: _301  and  _303
REMARK  109  A    between atoms: _303  and  _304
REMARK  110  A    between atoms: _306  and  _308
REMARK  111  A    between atoms: _308  and  _309
REMARK  112  A    between atoms: _308  and  _311
REMARK  113  A    between atoms: _311  and  _312
REMARK  114  A    between atoms: _315  and  _317
REMARK  115  A    between atoms: _317  and  _318
REMARK  116  A    between atoms: _317  and  _320
REMARK  117  A    between atoms: _320  and  _321
REMARK  118  A    between atoms: _324  and  _326
REMARK  119  A    between atoms: _326  and  _327
REMARK  120  A    between atoms: _330  and  _332
REMARK  121  A    between atoms: _332  and  _333
REMARK  122  A    between atoms: _336  and  _338
REMARK  123  A    between atoms: _338  and  _339
REMARK  124  A    between atoms: _338  and  _341
REMARK  125  A    between atoms: _341  and  _342
REMARK  126  A    between atoms: _347  and  _348
REMARK  127  A    between atoms: _350  and  _352
REMARK  128  A    between atoms: _352  and  _353
REMARK  129  A    between atoms: _352  and  _355
REMARK  130  A    between atoms: _355  and  _356
REMARK  131  A    between atoms: _359  and  _361
REMARK  132  A    between atoms: _361  and  _362
REMARK  133  A    between atoms: _361  and  _364
REMARK  134  A    between atoms: _364  and  _365
REMARK  135  A    between atoms: _368  and  _370
REMARK  136  A    between atoms: _370  and  _371
REMARK  137  A    between atoms: _370  and  _373
REMARK  138  A    between atoms: _373  and  _374
REMARK  139  A    between atoms: _374  and  _375
REMARK  140  A    between atoms: _378  and  _380
REMARK  141  A    between atoms: _380  and  _381
REMARK  142  A    between atoms: _380  and  _383
REMARK  143  A    between atoms: _383  and  _384
REMARK  144  A    between atoms: _384  and  _385
REMARK  145  A    between atoms: _385  and  _386
REMARK  146  A    between atoms: _395  and  _397
REMARK  147  A    between atoms: _397  and  _398
REMARK  148  A    between atoms: _400  and  _402
REMARK  149  A    between atoms: _402  and  _403
REMARK  150  A    between atoms: _402  and  _405
REMARK  151  A    between atoms: _405  and  _406
REMARK                            x       y       z     vdW  Elec       q    Type
REMARK                         _______ _______ _______ _____ _____    ______ ____
ROOT
ATOM      1  O   HOH     1      22.161  64.573  11.583  0.00  0.00    +0.000 OA
ENDROOT
TORSDOF 0
REMARK  Name = ../refined-set-2016/3dx2/3dx2_pocket.pdb
REMARK  151 active torsions:
REMARK  status: ('A' for Active; 'I' for Inactive)
REMARK    1  A    between atoms: _1  and  _3
REMARK    2  A    between atoms: _14  and  _17
REMARK    3  A    between atoms: _17  and  _18
REMARK    4  A    between atoms: _25  and  _26
REMARK    5  A    between atoms: _33  and  _34
REMARK    6  A    between atoms: _39  and  _41
REMARK    7  A    between atoms: _41  and  _42
REMARK    8  A    between atoms: _44  and  _46
REMARK    9  A    between atoms: _46  and  _47
REMARK   10  A    between atoms: _46  and  _49
REMARK   11  A    between atoms: _49  and  _50
REMARK   12  A    between atoms: _60  and  _62
REMARK   13  A    between atoms: _62  and  _63
REMARK   14  A    between atoms: _62  and  _65
REMARK   15  A    between atoms: _65  and  _66
REMARK   16  A    between atoms: _69  and  _71
REMARK   17  A    between atoms: _71  and  _72
REMARK   18  A    between atoms: _71  and  _74
REMARK   19  A    between atoms: _74  and  _75
REMARK   20  A    between atoms: _80  and  _81
REMARK   21  A    between atoms: _83  and  _85
REMARK   22  A    between atoms: _85  and  _86
REMARK   23  A    between atoms: _85  and  _88
REMARK   24  A    between atoms: _88  and  _89
REMARK   25  A    between atoms: _89  and  _90
REMARK   26  A    between atoms: _93  and  _95
REMARK   27  A    between atoms: _95  and  _96
REMARK   28  A    between atoms: _95  and  _98
REMARK   29  A    between atoms: _98  and  _99
REMARK   30  A    between atoms: _99  and  _100
REMARK   31  A    between atoms: _102  and  _104
REMARK   32  A    between atoms: _104  and  _105
REMARK   33  A    between atoms: _104  and  _107
REMARK   34  A    between atoms: _107  and  _108
REMARK   35  A    between atoms: _111  and  _113
REMARK   36  A    between atoms: _113  and  _114
REMARK   37  A    between atoms: _113  and  _116
REMARK   38  A    between atoms: _116  and  _117
REMARK   39  A    between atoms: _117  and  _119
REMARK   40  A    between atoms: _119  and  ZN_409
REMARK   41  A    between atoms: _121  and  _122
REMARK   42  A    between atoms: _127  and  _129
REMARK   43  A    between atoms: _129  and  _130
REMARK   44  A    between atoms: _129  and  _132
REMARK   45  A    between atoms: _132  and  _133
REMARK   46  A    between atoms: _139  and  _141
REMARK   47  A    between atoms: _141  and  _142
REMARK   48  A    between atoms: _141  and  _144
REMARK   49  A    between atoms: _144  and  _145
REMARK   50  A    between atoms: _145  and  _146
REMARK   51  A    between atoms: _146  and  _147
REMARK   52  A    between atoms: _156  and  _158
REMARK   53  A    between atoms: _158  and  _159
REMARK   54  A    between atoms: _158  and  _161
REMARK   55  A    between atoms: _161  and  _162
REMARK   56  A    between atoms: _167  and  _168
REMARK   57  A    between atoms: _170  and  _172
REMARK   58  A    between atoms: _172  and  _173
REMARK   59  A    between atoms: _172  and  _175
REMARK   60  A    between atoms: _175  and  _176
REMARK   61  A    between atoms: _178  and  _180
REMARK   62  A    between atoms: _180  and  _181
REMARK   63  A    between atoms: _180  and  _183
REMARK   64  A    between atoms: _183  and  _184
REMARK   65  A    between atoms: _189  and  _190
REMARK   66  A    between atoms: _192  and  _194
REMARK   67  A    between atoms: _194  and  _195
REMARK   68  A    between atoms: _194  and  _197
REMARK   69  A    between atoms: _197  and  _198
REMARK   70  A    between atoms: _201  and  _203
REMARK   71  A    between atoms: _203  and  _204
REMARK   72  A    between atoms: _203  and  _206
REMARK   73  A    between atoms: _206  and  _207
REMARK   74  A    between atoms: _210  and  _212
REMARK   75  A    between atoms: _212  and  _213
REMARK   76  A    between atoms: _212  and  _215
REMARK   77  A    between atoms: _215  and  _216
REMARK   78  A    between atoms: _219  and  _221
REMARK   79  A    between atoms: _221  and  _222
REMARK   80  A    between atoms: _221  and  _224
REMARK   81  A    between atoms: _224  and  _225
REMARK   82  A    between atoms: _231  and  _233
REMARK   83  A    between atoms: _233  and  _234
REMARK   84  A    between atoms: _233  and  _236
REMARK   85  A    between atoms: _236  and  _237
REMARK   86  A    between atoms: _242  and  _243
REMARK   87  A    between atoms: _245  and  _247
REMARK   88  A    between atoms: _247  and  _248
REMARK   89  A    between atoms: _247  and  _250
REMARK   90  A    between atoms: _250  and  _251
REMARK   91  A    between atoms: _254  and  _256
REMARK   92  A    between atoms: _256  and  _257
REMARK   93  A    between atoms: _256  and  _259
REMARK   94  A    between atoms: _259  and  _260
REMARK   95  A    between atoms: _270  and  _272
REMARK   96  A    between atoms: _272  and  _273
REMARK   97  A    between atoms: _272  and  _275
REMARK   98  A    between atoms: _275  and  _276
REMARK   99  A    between atoms: _281  and  _283
REMARK  100  A    between atoms: _283  and  _284
REMARK  101  A    between atoms: _283  and  _286
REMARK  102  A    between atoms: _286  and  _287
REMARK  103  A    between atoms: _291  and  ZN_409
REMARK  104  A    between atoms: _292  and  _294
REMARK  105  A    between atoms: _294  and  _295
REMARK  106  A    between atoms: _294  and  _297
REMARK  107  A    between atoms: _297  and  _298
REMARK  108  A    between atoms: _301  and  _303
REMARK  109  A    between atoms: _303  and  _304
REMARK  110  A    between atoms: _306  and  _308
REMARK  111  A    between atoms: _308  and  _309
REMARK  112  A    between atoms: _308  and  _311
REMARK  113  A    between atoms: _311  and  _312
REMARK  114  A    between atoms: _315  and  _317
REMARK  115  A    between atoms: _317  and  _318
REMARK  116  A    between atoms: _317  and  _320
REMARK  117  A    between atoms: _320  and  _321
REMARK  118  A    between atoms: _324  and  _326
REMARK  119  A    between atoms: _326  and  _327
REMARK  120  A    between atoms: _330  and  _332
REMARK  121  A    between atoms: _332  and  _333
REMARK  122  A    between atoms: _336  and  _338
REMARK  123  A    between atoms: _338  and  _339
REMARK  124  A    between atoms: _338  and  _341
REMARK  125  A    between atoms: _341  and  _342
REMARK  126  A    between atoms: _347  and  _348
REMARK  127  A    between atoms: _350  and  _352
REMARK  128  A    between atoms: _352  and  _353
REMARK  129  A    between atoms: _352  and  _355
REMARK  130  A    between atoms: _355  and  _356
REMARK  131  A    between atoms: _359  and  _361
REMARK  132  A    between atoms: _361  and  _362
REMARK  133  A    between atoms: _361  and  _364
REMARK  134  A    between atoms: _364  and  _365
REMARK  135  A    between atoms: _368  and  _370
REMARK  136  A    between atoms: _370  and  _371
REMARK  137  A    between atoms: _370  and  _373
REMARK  138  A    between atoms: _373  and  _374
REMARK  139  A    between atoms: _374  and  _375
REMARK  140  A    between atoms: _378  and  _380
REMARK  141  A    between atoms: _380  and  _381
REMARK  142  A    between atoms: _380  and  _383
REMARK  143  A    between atoms: _383  and  _384
REMARK  144  A    between atoms: _384  and  _385
REMARK  145  A    between atoms: _385  and  _386
REMARK  146  A    between atoms: _395  and  _397
REMARK  147  A    between atoms: _397  and  _398
REMARK  148  A    between atoms: _400  and  _402
REMARK  149  A    between atoms: _402  and  _403
REMARK  150  A    between atoms: _402  and  _405
REMARK  151  A    between atoms: _405  and  _406
REMARK                            x       y       z     vdW  Elec       q    Type
REMARK                         _______ _______ _______ _____ _____    ______ ____
ROOT
ATOM      1  O   HOH     1      20.594  64.867   7.881  0.00  0.00    +0.000 OA
ENDROOT
TORSDOF 0
REMARK  Name = ../refined-set-2016/3dx2/3dx2_pocket.pdb
REMARK  151 active torsions:
REMARK  status: ('A' for Active; 'I' for Inactive)
REMARK    1  A    between atoms: _1  and  _3
REMARK    2  A    between atoms: _14  and  _17
REMARK    3  A    between atoms: _17  and  _18
REMARK    4  A    between atoms: _25  and  _26
REMARK    5  A    between atoms: _33  and  _34
REMARK    6  A    between atoms: _39  and  _41
REMARK    7  A    between atoms: _41  and  _42
REMARK    8  A    between atoms: _44  and  _46
REMARK    9  A    between atoms: _46  and  _47
REMARK   10  A    between atoms: _46  and  _49
REMARK   11  A    between atoms: _49  and  _50
REMARK   12  A    between atoms: _60  and  _62
REMARK   13  A    between atoms: _62  and  _63
REMARK   14  A    between atoms: _62  and  _65
REMARK   15  A    between atoms: _65  and  _66
REMARK   16  A    between atoms: _69  and  _71
REMARK   17  A    between atoms: _71  and  _72
REMARK   18  A    between atoms: _71  and  _74
REMARK   19  A    between atoms: _74  and  _75
REMARK   20  A    between atoms: _80  and  _81
REMARK   21  A    between atoms: _83  and  _85
REMARK   22  A    between atoms: _85  and  _86
REMARK   23  A    between atoms: _85  and  _88
REMARK   24  A    between atoms: _88  and  _89
REMARK   25  A    between atoms: _89  and  _90
REMARK   26  A    between atoms: _93  and  _95
REMARK   27  A    between atoms: _95  and  _96
REMARK   28  A    between atoms: _95  and  _98
REMARK   29  A    between atoms: _98  and  _99
REMARK   30  A    between atoms: _99  and  _100
REMARK   31  A    between atoms: _102  and  _104
REMARK   32  A    between atoms: _104  and  _105
REMARK   33  A    between atoms: _104  and  _107
REMARK   34  A    between atoms: _107  and  _108
REMARK   35  A    between atoms: _111  and  _113
REMARK   36  A    between atoms: _113  and  _114
REMARK   37  A    between atoms: _113  and  _116
REMARK   38  A    between atoms: _116  and  _117
REMARK   39  A    between atoms: _117  and  _119
REMARK   40  A    between atoms: _119  and  ZN_409
REMARK   41  A    between atoms: _121  and  _122
REMARK   42  A    between atoms: _127  and  _129
REMARK   43  A    between atoms: _129  and  _130
REMARK   44  A    between atoms: _129  and  _132
REMARK   45  A    between atoms: _132  and  _133
REMARK   46  A    between atoms: _139  and  _141
REMARK   47  A    between atoms: _141  and  _142
REMARK   48  A    between atoms: _141  and  _144
REMARK   49  A    between atoms: _144  and  _145
REMARK   50  A    between atoms: _145  and  _146
REMARK   51  A    between atoms: _146  and  _147
REMARK   52  A    between atoms: _156  and  _158
REMARK   53  A    between atoms: _158  and  _159
REMARK   54  A    between atoms: _158  and  _161
REMARK   55  A    between atoms: _161  and  _162
REMARK   56  A    between atoms: _167  and  _168
REMARK   57  A    between atoms: _170  and  _172
REMARK   58  A    between atoms: _172  and  _173
REMARK   59  A    between atoms: _172  and  _175
REMARK   60  A    between atoms: _175  and  _176
REMARK   61  A    between atoms: _178  and  _180
REMARK   62  A    between atoms: _180  and  _181
REMARK   63  A    between atoms: _180  and  _183
REMARK   64  A    between atoms: _183  and  _184
REMARK   65  A    between atoms: _189  and  _190
REMARK   66  A    between atoms: _192  and  _194
REMARK   67  A    between atoms: _194  and  _195
REMARK   68  A    between atoms: _194  and  _197
REMARK   69  A    between atoms: _197  and  _198
REMARK   70  A    between atoms: _201  and  _203
REMARK   71  A    between atoms: _203  and  _204
REMARK   72  A    between atoms: _203  and  _206
REMARK   73  A    between atoms: _206  and  _207
REMARK   74  A    between atoms: _210  and  _212
REMARK   75  A    between atoms: _212  and  _213
REMARK   76  A    between atoms: _212  and  _215
REMARK   77  A    between atoms: _215  and  _216
REMARK   78  A    between atoms: _219  and  _221
REMARK   79  A    between atoms: _221  and  _222
REMARK   80  A    between atoms: _221  and  _224
REMARK   81  A    between atoms: _224  and  _225
REMARK   82  A    between atoms: _231  and  _233
REMARK   83  A    between atoms: _233  and  _234
REMARK   84  A    between atoms: _233  and  _236
REMARK   85  A    between atoms: _236  and  _237
REMARK   86  A    between atoms: _242  and  _243
REMARK   87  A    between atoms: _245  and  _247
REMARK   88  A    between atoms: _247  and  _248
REMARK   89  A    between atoms: _247  and  _250
REMARK   90  A    between atoms: _250  and  _251
REMARK   91  A    between atoms: _254  and  _256
REMARK   92  A    between atoms: _256  and  _257
REMARK   93  A    between atoms: _256  and  _259
REMARK   94  A    between atoms: _259  and  _260
REMARK   95  A    between atoms: _270  and  _272
REMARK   96  A    between atoms: _272  and  _273
REMARK   97  A    between atoms: _272  and  _275
REMARK   98  A    between atoms: _275  and  _276
REMARK   99  A    between atoms: _281  and  _283
REMARK  100  A    between atoms: _283  and  _284
REMARK  101  A    between atoms: _283  and  _286
REMARK  102  A    between atoms: _286  and  _287
REMARK  103  A    between atoms: _291  and  ZN_409
REMARK  104  A    between atoms: _292  and  _294
REMARK  105  A    between atoms: _294  and  _295
REMARK  106  A    between atoms: _294  and  _297
REMARK  107  A    between atoms: _297  and  _298
REMARK  108  A    between atoms: _301  and  _303
REMARK  109  A    between atoms: _303  and  _304
REMARK  110  A    between atoms: _306  and  _308
REMARK  111  A    between atoms: _308  and  _309
REMARK  112  A    between atoms: _308  and  _311
REMARK  113  A    between atoms: _311  and  _312
REMARK  114  A    between atoms: _315  and  _317
REMARK  115  A    between atoms: _317  and  _318
REMARK  116  A    between atoms: _317  and  _320
REMARK  117  A    between atoms: _320  and  _321
REMARK  118  A    between atoms: _324  and  _326
REMARK  119  A    between atoms: _326  and  _327
REMARK  120  A    between atoms: _330  and  _332
REMARK  121  A    between atoms: _332  and  _333
REMARK  122  A    between atoms: _336  and  _338
REMARK  123  A    between atoms: _338  and  _339
REMARK  124  A    between atoms: _338  and  _341
REMARK  125  A    between atoms: _341  and  _342
REMARK  126  A    between atoms: _347  and  _348
REMARK  127  A    between atoms: _350  and  _352
REMARK  128  A    between atoms: _352  and  _353
REMARK  129  A    between atoms: _352  and  _355
REMARK  130  A    between atoms: _355  and  _356
REMARK  131  A    between atoms: _359  and  _361
REMARK  132  A    between atoms: _361  and  _362
REMARK  133  A    between atoms: _361  and  _364
REMARK  134  A    between atoms: _364  and  _365
REMARK  135  A    between atoms: _368  and  _370
REMARK  136  A    between atoms: _370  and  _371
REMARK  137  A    between atoms: _370  and  _373
REMARK  138  A    between atoms: _373  and  _374
REMARK  139  A    between atoms: _374  and  _375
REMARK  140  A    between atoms: _378  and  _380
REMARK  141  A    between atoms: _380  and  _381
REMARK  142  A    between atoms: _380  and  _383
REMARK  143  A    between atoms: _383  and  _384
REMARK  144  A    between atoms: _384  and  _385
REMARK  145  A    between atoms: _385  and  _386
REMARK  146  A    between atoms: _395  and  _397
REMARK  147  A    between atoms: _397  and  _398
REMARK  148  A    between atoms: _400  and  _402
REMARK  149  A    between atoms: _402  and  _403
REMARK  150  A    between atoms: _402  and  _405
REMARK  151  A    between atoms: _405  and  _406
REMARK                            x       y       z     vdW  Elec       q    Type
REMARK                         _______ _______ _______ _____ _____    ______ ____
ROOT
ATOM      1  O   HOH     1      29.433  71.750  12.774  0.00  0.00    +0.000 OA
ENDROOT
TORSDOF 0
REMARK  Name = ../refined-set-2016/3dx2/3dx2_pocket.pdb
REMARK  151 active torsions:
REMARK  status: ('A' for Active; 'I' for Inactive)
REMARK    1  A    between atoms: _1  and  _3
REMARK    2  A    between atoms: _14  and  _17
REMARK    3  A    between atoms: _17  and  _18
REMARK    4  A    between atoms: _25  and  _26
REMARK    5  A    between atoms: _33  and  _34
REMARK    6  A    between atoms: _39  and  _41
REMARK    7  A    between atoms: _41  and  _42
REMARK    8  A    between atoms: _44  and  _46
REMARK    9  A    between atoms: _46  and  _47
REMARK   10  A    between atoms: _46  and  _49
REMARK   11  A    between atoms: _49  and  _50
REMARK   12  A    between atoms: _60  and  _62
REMARK   13  A    between atoms: _62  and  _63
REMARK   14  A    between atoms: _62  and  _65
REMARK   15  A    between atoms: _65  and  _66
REMARK   16  A    between atoms: _69  and  _71
REMARK   17  A    between atoms: _71  and  _72
REMARK   18  A    between atoms: _71  and  _74
REMARK   19  A    between atoms: _74  and  _75
REMARK   20  A    between atoms: _80  and  _81
REMARK   21  A    between atoms: _83  and  _85
REMARK   22  A    between atoms: _85  and  _86
REMARK   23  A    between atoms: _85  and  _88
REMARK   24  A    between atoms: _88  and  _89
REMARK   25  A    between atoms: _89  and  _90
REMARK   26  A    between atoms: _93  and  _95
REMARK   27  A    between atoms: _95  and  _96
REMARK   28  A    between atoms: _95  and  _98
REMARK   29  A    between atoms: _98  and  _99
REMARK   30  A    between atoms: _99  and  _100
REMARK   31  A    between atoms: _102  and  _104
REMARK   32  A    between atoms: _104  and  _105
REMARK   33  A    between atoms: _104  and  _107
REMARK   34  A    between atoms: _107  and  _108
REMARK   35  A    between atoms: _111  and  _113
REMARK   36  A    between atoms: _113  and  _114
REMARK   37  A    between atoms: _113  and  _116
REMARK   38  A    between atoms: _116  and  _117
REMARK   39  A    between atoms: _117  and  _119
REMARK   40  A    between atoms: _119  and  ZN_409
REMARK   41  A    between atoms: _121  and  _122
REMARK   42  A    between atoms: _127  and  _129
REMARK   43  A    between atoms: _129  and  _130
REMARK   44  A    between atoms: _129  and  _132
REMARK   45  A    between atoms: _132  and  _133
REMARK   46  A    between atoms: _139  and  _141
REMARK   47  A    between atoms: _141  and  _142
REMARK   48  A    between atoms: _141  and  _144
REMARK   49  A    between atoms: _144  and  _145
REMARK   50  A    between atoms: _145  and  _146
REMARK   51  A    between atoms: _146  and  _147
REMARK   52  A    between atoms: _156  and  _158
REMARK   53  A    between atoms: _158  and  _159
REMARK   54  A    between atoms: _158  and  _161
REMARK   55  A    between atoms: _161  and  _162
REMARK   56  A    between atoms: _167  and  _168
REMARK   57  A    between atoms: _170  and  _172
REMARK   58  A    between atoms: _172  and  _173
REMARK   59  A    between atoms: _172  and  _175
REMARK   60  A    between atoms: _175  and  _176
REMARK   61  A    between atoms: _178  and  _180
REMARK   62  A    between atoms: _180  and  _181
REMARK   63  A    between atoms: _180  and  _183
REMARK   64  A    between atoms: _183  and  _184
REMARK   65  A    between atoms: _189  and  _190
REMARK   66  A    between atoms: _192  and  _194
REMARK   67  A    between atoms: _194  and  _195
REMARK   68  A    between atoms: _194  and  _197
REMARK   69  A    between atoms: _197  and  _198
REMARK   70  A    between atoms: _201  and  _203
REMARK   71  A    between atoms: _203  and  _204
REMARK   72  A    between atoms: _203  and  _206
REMARK   73  A    between atoms: _206  and  _207
REMARK   74  A    between atoms: _210  and  _212
REMARK   75  A    between atoms: _212  and  _213
REMARK   76  A    between atoms: _212  and  _215
REMARK   77  A    between atoms: _215  and  _216
REMARK   78  A    between atoms: _219  and  _221
REMARK   79  A    between atoms: _221  and  _222
REMARK   80  A    between atoms: _221  and  _224
REMARK   81  A    between atoms: _224  and  _225
REMARK   82  A    between atoms: _231  and  _233
REMARK   83  A    between atoms: _233  and  _234
REMARK   84  A    between atoms: _233  and  _236
REMARK   85  A    between atoms: _236  and  _237
REMARK   86  A    between atoms: _242  and  _243
REMARK   87  A    between atoms: _245  and  _247
REMARK   88  A    between atoms: _247  and  _248
REMARK   89  A    between atoms: _247  and  _250
REMARK   90  A    between atoms: _250  and  _251
REMARK   91  A    between atoms: _254  and  _256
REMARK   92  A    between atoms: _256  and  _257
REMARK   93  A    between atoms: _256  and  _259
REMARK   94  A    between atoms: _259  and  _260
REMARK   95  A    between atoms: _270  and  _272
REMARK   96  A    between atoms: _272  and  _273
REMARK   97  A    between atoms: _272  and  _275
REMARK   98  A    between atoms: _275  and  _276
REMARK   99  A    between atoms: _281  and  _283
REMARK  100  A    between atoms: _283  and  _284
REMARK  101  A    between atoms: _283  and  _286
REMARK  102  A    between atoms: _286  and  _287
REMARK  103  A    between atoms: _291  and  ZN_409
REMARK  104  A    between atoms: _292  and  _294
REMARK  105  A    between atoms: _294  and  _295
REMARK  106  A    between atoms: _294  and  _297
REMARK  107  A    between atoms: _297  and  _298
REMARK  108  A    between atoms: _301  and  _303
REMARK  109  A    between atoms: _303  and  _304
REMARK  110  A    between atoms: _306  and  _308
REMARK  111  A    between atoms: _308  and  _309
REMARK  112  A    between atoms: _308  and  _311
REMARK  113  A    between atoms: _311  and  _312
REMARK  114  A    between atoms: _315  and  _317
REMARK  115  A    between atoms: _317  and  _318
REMARK  116  A    between atoms: _317  and  _320
REMARK  117  A    between atoms: _320  and  _321
REMARK  118  A    between atoms: _324  and  _326
REMARK  119  A    between atoms: _326  and  _327
REMARK  120  A    between atoms: _330  and  _332
REMARK  121  A    between atoms: _332  and  _333
REMARK  122  A    between atoms: _336  and  _338
REMARK  123  A    between atoms: _338  and  _339
REMARK  124  A    between atoms: _338  and  _341
REMARK  125  A    between atoms: _341  and  _342
REMARK  126  A    between atoms: _347  and  _348
REMARK  127  A    between atoms: _350  and  _352
REMARK  128  A    between atoms: _352  and  _353
REMARK  129  A    between atoms: _352  and  _355
REMARK  130  A    between atoms: _355  and  _356
REMARK  131  A    between atoms: _359  and  _361
REMARK  132  A    between atoms: _361  and  _362
REMARK  133  A    between atoms: _361  and  _364
REMARK  134  A    between atoms: _364  and  _365
REMARK  135  A    between atoms: _368  and  _370
REMARK  136  A    between atoms: _370  and  _371
REMARK  137  A    between atoms: _370  and  _373
REMARK  138  A    between atoms: _373  and  _374
REMARK  139  A    between atoms: _374  and  _375
REMARK  140  A    between atoms: _378  and  _380
REMARK  141  A    between atoms: _380  and  _381
REMARK  142  A    between atoms: _380  and  _383
REMARK  143  A    between atoms: _383  and  _384
REMARK  144  A    between atoms: _384  and  _385
REMARK  145  A    between atoms: _385  and  _386
REMARK  146  A    between atoms: _395  and  _397
REMARK  147  A    between atoms: _397  and  _398
REMARK  148  A    between atoms: _400  and  _402
REMARK  149  A    between atoms: _402  and  _403
REMARK  150  A    between atoms: _402  and  _405
REMARK  151  A    between atoms: _405  and  _406
REMARK                            x       y       z     vdW  Elec       q    Type
REMARK                         _______ _______ _______ _____ _____    ______ ____
ROOT
ATOM      1  O   HOH     1      31.658  71.030  14.015  0.00  0.00    +0.000 OA
ENDROOT
TORSDOF 0
REMARK  Name = ../refined-set-2016/3dx2/3dx2_pocket.pdb
REMARK  151 active torsions:
REMARK  status: ('A' for Active; 'I' for Inactive)
REMARK    1  A    between atoms: _1  and  _3
REMARK    2  A    between atoms: _14  and  _17
REMARK    3  A    between atoms: _17  and  _18
REMARK    4  A    between atoms: _25  and  _26
REMARK    5  A    between atoms: _33  and  _34
REMARK    6  A    between atoms: _39  and  _41
REMARK    7  A    between atoms: _41  and  _42
REMARK    8  A    between atoms: _44  and  _46
REMARK    9  A    between atoms: _46  and  _47
REMARK   10  A    between atoms: _46  and  _49
REMARK   11  A    between atoms: _49  and  _50
REMARK   12  A    between atoms: _60  and  _62
REMARK   13  A    between atoms: _62  and  _63
REMARK   14  A    between atoms: _62  and  _65
REMARK   15  A    between atoms: _65  and  _66
REMARK   16  A    between atoms: _69  and  _71
REMARK   17  A    between atoms: _71  and  _72
REMARK   18  A    between atoms: _71  and  _74
REMARK   19  A    between atoms: _74  and  _75
REMARK   20  A    between atoms: _80  and  _81
REMARK   21  A    between atoms: _83  and  _85
REMARK   22  A    between atoms: _85  and  _86
REMARK   23  A    between atoms: _85  and  _88
REMARK   24  A    between atoms: _88  and  _89
REMARK   25  A    between atoms: _89  and  _90
REMARK   26  A    between atoms: _93  and  _95
REMARK   27  A    between atoms: _95  and  _96
REMARK   28  A    between atoms: _95  and  _98
REMARK   29  A    between atoms: _98  and  _99
REMARK   30  A    between atoms: _99  and  _100
REMARK   31  A    between atoms: _102  and  _104
REMARK   32  A    between atoms: _104  and  _105
REMARK   33  A    between atoms: _104  and  _107
REMARK   34  A    between atoms: _107  and  _108
REMARK   35  A    between atoms: _111  and  _113
REMARK   36  A    between atoms: _113  and  _114
REMARK   37  A    between atoms: _113  and  _116
REMARK   38  A    between atoms: _116  and  _117
REMARK   39  A    between atoms: _117  and  _119
REMARK   40  A    between atoms: _119  and  ZN_409
REMARK   41  A    between atoms: _121  and  _122
REMARK   42  A    between atoms: _127  and  _129
REMARK   43  A    between atoms: _129  and  _130
REMARK   44  A    between atoms: _129  and  _132
REMARK   45  A    between atoms: _132  and  _133
REMARK   46  A    between atoms: _139  and  _141
REMARK   47  A    between atoms: _141  and  _142
REMARK   48  A    between atoms: _141  and  _144
REMARK   49  A    between atoms: _144  and  _145
REMARK   50  A    between atoms: _145  and  _146
REMARK   51  A    between atoms: _146  and  _147
REMARK   52  A    between atoms: _156  and  _158
REMARK   53  A    between atoms: _158  and  _159
REMARK   54  A    between atoms: _158  and  _161
REMARK   55  A    between atoms: _161  and  _162
REMARK   56  A    between atoms: _167  and  _168
REMARK   57  A    between atoms: _170  and  _172
REMARK   58  A    between atoms: _172  and  _173
REMARK   59  A    between atoms: _172  and  _175
REMARK   60  A    between atoms: _175  and  _176
REMARK   61  A    between atoms: _178  and  _180
REMARK   62  A    between atoms: _180  and  _181
REMARK   63  A    between atoms: _180  and  _183
REMARK   64  A    between atoms: _183  and  _184
REMARK   65  A    between atoms: _189  and  _190
REMARK   66  A    between atoms: _192  and  _194
REMARK   67  A    between atoms: _194  and  _195
REMARK   68  A    between atoms: _194  and  _197
REMARK   69  A    between atoms: _197  and  _198
REMARK   70  A    between atoms: _201  and  _203
REMARK   71  A    between atoms: _203  and  _204
REMARK   72  A    between atoms: _203  and  _206
REMARK   73  A    between atoms: _206  and  _207
REMARK   74  A    between atoms: _210  and  _212
REMARK   75  A    between atoms: _212  and  _213
REMARK   76  A    between atoms: _212  and  _215
REMARK   77  A    between atoms: _215  and  _216
REMARK   78  A    between atoms: _219  and  _221
REMARK   79  A    between atoms: _221  and  _222
REMARK   80  A    between atoms: _221  and  _224
REMARK   81  A    between atoms: _224  and  _225
REMARK   82  A    between atoms: _231  and  _233
REMARK   83  A    between atoms: _233  and  _234
REMARK   84  A    between atoms: _233  and  _236
REMARK   85  A    between atoms: _236  and  _237
REMARK   86  A    between atoms: _242  and  _243
REMARK   87  A    between atoms: _245  and  _247
REMARK   88  A    between atoms: _247  and  _248
REMARK   89  A    between atoms: _247  and  _250
REMARK   90  A    between atoms: _250  and  _251
REMARK   91  A    between atoms: _254  and  _256
REMARK   92  A    between atoms: _256  and  _257
REMARK   93  A    between atoms: _256  and  _259
REMARK   94  A    between atoms: _259  and  _260
REMARK   95  A    between atoms: _270  and  _272
REMARK   96  A    between atoms: _272  and  _273
REMARK   97  A    between atoms: _272  and  _275
REMARK   98  A    between atoms: _275  and  _276
REMARK   99  A    between atoms: _281  and  _283
REMARK  100  A    between atoms: _283  and  _284
REMARK  101  A    between atoms: _283  and  _286
REMARK  102  A    between atoms: _286  and  _287
REMARK  103  A    between atoms: _291  and  ZN_409
REMARK  104  A    between atoms: _292  and  _294
REMARK  105  A    between atoms: _294  and  _295
REMARK  106  A    between atoms: _294  and  _297
REMARK  107  A    between atoms: _297  and  _298
REMARK  108  A    between atoms: _301  and  _303
REMARK  109  A    between atoms: _303  and  _304
REMARK  110  A    between atoms: _306  and  _308
REMARK  111  A    between atoms: _308  and  _309
REMARK  112  A    between atoms: _308  and  _311
REMARK  113  A    between atoms: _311  and  _312
REMARK  114  A    between atoms: _315  and  _317
REMARK  115  A    between atoms: _317  and  _318
REMARK  116  A    between atoms: _317  and  _320
REMARK  117  A    between atoms: _320  and  _321
REMARK  118  A    between atoms: _324  and  _326
REMARK  119  A    between atoms: _326  and  _327
REMARK  120  A    between atoms: _330  and  _332
REMARK  121  A    between atoms: _332  and  _333
REMARK  122  A    between atoms: _336  and  _338
REMARK  123  A    between atoms: _338  and  _339
REMARK  124  A    between atoms: _338  and  _341
REMARK  125  A    between atoms: _341  and  _342
REMARK  126  A    between atoms: _347  and  _348
REMARK  127  A    between atoms: _350  and  _352
REMARK  128  A    between atoms: _352  and  _353
REMARK  129  A    between atoms: _352  and  _355
REMARK  130  A    between atoms: _355  and  _356
REMARK  131  A    between atoms: _359  and  _361
REMARK  132  A    between atoms: _361  and  _362
REMARK  133  A    between atoms: _361  and  _364
REMARK  134  A    between atoms: _364  and  _365
REMARK  135  A    between atoms: _368  and  _370
REMARK  136  A    between atoms: _370  and  _371
REMARK  137  A    between atoms: _370  and  _373
REMARK  138  A    between atoms: _373  and  _374
REMARK  139  A    between atoms: _374  and  _375
REMARK  140  A    between atoms: _378  and  _380
REMARK  141  A    between atoms: _380  and  _381
REMARK  142  A    between atoms: _380  and  _383
REMARK  143  A    between atoms: _383  and  _384
REMARK  144  A    between atoms: _384  and  _385
REMARK  145  A    between atoms: _385  and  _386
REMARK  146  A    between atoms: _395  and  _397
REMARK  147  A    between atoms: _397  and  _398
REMARK  148  A    between atoms: _400  and  _402
REMARK  149  A    between atoms: _402  and  _403
REMARK  150  A    between atoms: _402  and  _405
REMARK  151  A    between atoms: _405  and  _406
REMARK                            x       y       z     vdW  Elec       q    Type
REMARK                         _______ _______ _______ _____ _____    ______ ____
ROOT
ATOM      1  O   HOH     1      31.050  68.762  15.050  0.00  0.00    +0.000 OA
ENDROOT
TORSDOF 0
REMARK  Name = ../refined-set-2016/3dx2/3dx2_pocket.pdb
REMARK  151 active torsions:
REMARK  status: ('A' for Active; 'I' for Inactive)
REMARK    1  A    between atoms: _1  and  _3
REMARK    2  A    between atoms: _14  and  _17
REMARK    3  A    between atoms: _17  and  _18
REMARK    4  A    between atoms: _25  and  _26
REMARK    5  A    between atoms: _33  and  _34
REMARK    6  A    between atoms: _39  and  _41
REMARK    7  A    between atoms: _41  and  _42
REMARK    8  A    between atoms: _44  and  _46
REMARK    9  A    between atoms: _46  and  _47
REMARK   10  A    between atoms: _46  and  _49
REMARK   11  A    between atoms: _49  and  _50
REMARK   12  A    between atoms: _60  and  _62
REMARK   13  A    between atoms: _62  and  _63
REMARK   14  A    between atoms: _62  and  _65
REMARK   15  A    between atoms: _65  and  _66
REMARK   16  A    between atoms: _69  and  _71
REMARK   17  A    between atoms: _71  and  _72
REMARK   18  A    between atoms: _71  and  _74
REMARK   19  A    between atoms: _74  and  _75
REMARK   20  A    between atoms: _80  and  _81
REMARK   21  A    between atoms: _83  and  _85
REMARK   22  A    between atoms: _85  and  _86
REMARK   23  A    between atoms: _85  and  _88
REMARK   24  A    between atoms: _88  and  _89
REMARK   25  A    between atoms: _89  and  _90
REMARK   26  A    between atoms: _93  and  _95
REMARK   27  A    between atoms: _95  and  _96
REMARK   28  A    between atoms: _95  and  _98
REMARK   29  A    between atoms: _98  and  _99
REMARK   30  A    between atoms: _99  and  _100
REMARK   31  A    between atoms: _102  and  _104
REMARK   32  A    between atoms: _104  and  _105
REMARK   33  A    between atoms: _104  and  _107
REMARK   34  A    between atoms: _107  and  _108
REMARK   35  A    between atoms: _111  and  _113
REMARK   36  A    between atoms: _113  and  _114
REMARK   37  A    between atoms: _113  and  _116
REMARK   38  A    between atoms: _116  and  _117
REMARK   39  A    between atoms: _117  and  _119
REMARK   40  A    between atoms: _119  and  ZN_409
REMARK   41  A    between atoms: _121  and  _122
REMARK   42  A    between atoms: _127  and  _129
REMARK   43  A    between atoms: _129  and  _130
REMARK   44  A    between atoms: _129  and  _132
REMARK   45  A    between atoms: _132  and  _133
REMARK   46  A    between atoms: _139  and  _141
REMARK   47  A    between atoms: _141  and  _142
REMARK   48  A    between atoms: _141  and  _144
REMARK   49  A    between atoms: _144  and  _145
REMARK   50  A    between atoms: _145  and  _146
REMARK   51  A    between atoms: _146  and  _147
REMARK   52  A    between atoms: _156  and  _158
REMARK   53  A    between atoms: _158  and  _159
REMARK   54  A    between atoms: _158  and  _161
REMARK   55  A    between atoms: _161  and  _162
REMARK   56  A    between atoms: _167  and  _168
REMARK   57  A    between atoms: _170  and  _172
REMARK   58  A    between atoms: _172  and  _173
REMARK   59  A    between atoms: _172  and  _175
REMARK   60  A    between atoms: _175  and  _176
REMARK   61  A    between atoms: _178  and  _180
REMARK   62  A    between atoms: _180  and  _181
REMARK   63  A    between atoms: _180  and  _183
REMARK   64  A    between atoms: _183  and  _184
REMARK   65  A    between atoms: _189  and  _190
REMARK   66  A    between atoms: _192  and  _194
REMARK   67  A    between atoms: _194  and  _195
REMARK   68  A    between atoms: _194  and  _197
REMARK   69  A    between atoms: _197  and  _198
REMARK   70  A    between atoms: _201  and  _203
REMARK   71  A    between atoms: _203  and  _204
REMARK   72  A    between atoms: _203  and  _206
REMARK   73  A    between atoms: _206  and  _207
REMARK   74  A    between atoms: _210  and  _212
REMARK   75  A    between atoms: _212  and  _213
REMARK   76  A    between atoms: _212  and  _215
REMARK   77  A    between atoms: _215  and  _216
REMARK   78  A    between atoms: _219  and  _221
REMARK   79  A    between atoms: _221  and  _222
REMARK   80  A    between atoms: _221  and  _224
REMARK   81  A    between atoms: _224  and  _225
REMARK   82  A    between atoms: _231  and  _233
REMARK   83  A    between atoms: _233  and  _234
REMARK   84  A    between atoms: _233  and  _236
REMARK   85  A    between atoms: _236  and  _237
REMARK   86  A    between atoms: _242  and  _243
REMARK   87  A    between atoms: _245  and  _247
REMARK   88  A    between atoms: _247  and  _248
REMARK   89  A    between atoms: _247  and  _250
REMARK   90  A    between atoms: _250  and  _251
REMARK   91  A    between atoms: _254  and  _256
REMARK   92  A    between atoms: _256  and  _257
REMARK   93  A    between atoms: _256  and  _259
REMARK   94  A    between atoms: _259  and  _260
REMARK   95  A    between atoms: _270  and  _272
REMARK   96  A    between atoms: _272  and  _273
REMARK   97  A    between atoms: _272  and  _275
REMARK   98  A    between atoms: _275  and  _276
REMARK   99  A    between atoms: _281  and  _283
REMARK  100  A    between atoms: _283  and  _284
REMARK  101  A    between atoms: _283  and  _286
REMARK  102  A    between atoms: _286  and  _287
REMARK  103  A    between atoms: _291  and  ZN_409
REMARK  104  A    between atoms: _292  and  _294
REMARK  105  A    between atoms: _294  and  _295
REMARK  106  A    between atoms: _294  and  _297
REMARK  107  A    between atoms: _297  and  _298
REMARK  108  A    between atoms: _301  and  _303
REMARK  109  A    between atoms: _303  and  _304
REMARK  110  A    between atoms: _306  and  _308
REMARK  111  A    between atoms: _308  and  _309
REMARK  112  A    between atoms: _308  and  _311
REMARK  113  A    between atoms: _311  and  _312
REMARK  114  A    between atoms: _315  and  _317
REMARK  115  A    between atoms: _317  and  _318
REMARK  116  A    between atoms: _317  and  _320
REMARK  117  A    between atoms: _320  and  _321
REMARK  118  A    between atoms: _324  and  _326
REMARK  119  A    between atoms: _326  and  _327
REMARK  120  A    between atoms: _330  and  _332
REMARK  121  A    between atoms: _332  and  _333
REMARK  122  A    between atoms: _336  and  _338
REMARK  123  A    between atoms: _338  and  _339
REMARK  124  A    between atoms: _338  and  _341
REMARK  125  A    between atoms: _341  and  _342
REMARK  126  A    between atoms: _347  and  _348
REMARK  127  A    between atoms: _350  and  _352
REMARK  128  A    between atoms: _352  and  _353
REMARK  129  A    between atoms: _352  and  _355
REMARK  130  A    between atoms: _355  and  _356
REMARK  131  A    between atoms: _359  and  _361
REMARK  132  A    between atoms: _361  and  _362
REMARK  133  A    between atoms: _361  and  _364
REMARK  134  A    between atoms: _364  and  _365
REMARK  135  A    between atoms: _368  and  _370
REMARK  136  A    between atoms: _370  and  _371
REMARK  137  A    between atoms: _370  and  _373
REMARK  138  A    between atoms: _373  and  _374
REMARK  139  A    between atoms: _374  and  _375
REMARK  140  A    between atoms: _378  and  _380
REMARK  141  A    between atoms: _380  and  _381
REMARK  142  A    between atoms: _380  and  _383
REMARK  143  A    between atoms: _383  and  _384
REMARK  144  A    between atoms: _384  and  _385
REMARK  145  A    between atoms: _385  and  _386
REMARK  146  A    between atoms: _395  and  _397
REMARK  147  A    between atoms: _397  and  _398
REMARK  148  A    between atoms: _400  and  _402
REMARK  149  A    between atoms: _402  and  _403
REMARK  150  A    between atoms: _402  and  _405
REMARK  151  A    between atoms: _405  and  _406
REMARK                            x       y       z     vdW  Elec       q    Type
REMARK                         _______ _______ _______ _____ _____    ______ ____
ROOT
ATOM      1  O   HOH     1      33.033  68.193  16.946  0.00  0.00    +0.000 OA
ENDROOT
TORSDOF 0
REMARK  Name = ../refined-set-2016/3dx2/3dx2_pocket.pdb
REMARK  151 active torsions:
REMARK  status: ('A' for Active; 'I' for Inactive)
REMARK    1  A    between atoms: _1  and  _3
REMARK    2  A    between atoms: _14  and  _17
REMARK    3  A    between atoms: _17  and  _18
REMARK    4  A    between atoms: _25  and  _26
REMARK    5  A    between atoms: _33  and  _34
REMARK    6  A    between atoms: _39  and  _41
REMARK    7  A    between atoms: _41  and  _42
REMARK    8  A    between atoms: _44  and  _46
REMARK    9  A    between atoms: _46  and  _47
REMARK   10  A    between atoms: _46  and  _49
REMARK   11  A    between atoms: _49  and  _50
REMARK   12  A    between atoms: _60  and  _62
REMARK   13  A    between atoms: _62  and  _63
REMARK   14  A    between atoms: _62  and  _65
REMARK   15  A    between atoms: _65  and  _66
REMARK   16  A    between atoms: _69  and  _71
REMARK   17  A    between atoms: _71  and  _72
REMARK   18  A    between atoms: _71  and  _74
REMARK   19  A    between atoms: _74  and  _75
REMARK   20  A    between atoms: _80  and  _81
REMARK   21  A    between atoms: _83  and  _85
REMARK   22  A    between atoms: _85  and  _86
REMARK   23  A    between atoms: _85  and  _88
REMARK   24  A    between atoms: _88  and  _89
REMARK   25  A    between atoms: _89  and  _90
REMARK   26  A    between atoms: _93  and  _95
REMARK   27  A    between atoms: _95  and  _96
REMARK   28  A    between atoms: _95  and  _98
REMARK   29  A    between atoms: _98  and  _99
REMARK   30  A    between atoms: _99  and  _100
REMARK   31  A    between atoms: _102  and  _104
REMARK   32  A    between atoms: _104  and  _105
REMARK   33  A    between atoms: _104  and  _107
REMARK   34  A    between atoms: _107  and  _108
REMARK   35  A    between atoms: _111  and  _113
REMARK   36  A    between atoms: _113  and  _114
REMARK   37  A    between atoms: _113  and  _116
REMARK   38  A    between atoms: _116  and  _117
REMARK   39  A    between atoms: _117  and  _119
REMARK   40  A    between atoms: _119  and  ZN_409
REMARK   41  A    between atoms: _121  and  _122
REMARK   42  A    between atoms: _127  and  _129
REMARK   43  A    between atoms: _129  and  _130
REMARK   44  A    between atoms: _129  and  _132
REMARK   45  A    between atoms: _132  and  _133
REMARK   46  A    between atoms: _139  and  _141
REMARK   47  A    between atoms: _141  and  _142
REMARK   48  A    between atoms: _141  and  _144
REMARK   49  A    between atoms: _144  and  _145
REMARK   50  A    between atoms: _145  and  _146
REMARK   51  A    between atoms: _146  and  _147
REMARK   52  A    between atoms: _156  and  _158
REMARK   53  A    between atoms: _158  and  _159
REMARK   54  A    between atoms: _158  and  _161
REMARK   55  A    between atoms: _161  and  _162
REMARK   56  A    between atoms: _167  and  _168
REMARK   57  A    between atoms: _170  and  _172
REMARK   58  A    between atoms: _172  and  _173
REMARK   59  A    between atoms: _172  and  _175
REMARK   60  A    between atoms: _175  and  _176
REMARK   61  A    between atoms: _178  and  _180
REMARK   62  A    between atoms: _180  and  _181
REMARK   63  A    between atoms: _180  and  _183
REMARK   64  A    between atoms: _183  and  _184
REMARK   65  A    between atoms: _189  and  _190
REMARK   66  A    between atoms: _192  and  _194
REMARK   67  A    between atoms: _194  and  _195
REMARK   68  A    between atoms: _194  and  _197
REMARK   69  A    between atoms: _197  and  _198
REMARK   70  A    between atoms: _201  and  _203
REMARK   71  A    between atoms: _203  and  _204
REMARK   72  A    between atoms: _203  and  _206
REMARK   73  A    between atoms: _206  and  _207
REMARK   74  A    between atoms: _210  and  _212
REMARK   75  A    between atoms: _212  and  _213
REMARK   76  A    between atoms: _212  and  _215
REMARK   77  A    between atoms: _215  and  _216
REMARK   78  A    between atoms: _219  and  _221
REMARK   79  A    between atoms: _221  and  _222
REMARK   80  A    between atoms: _221  and  _224
REMARK   81  A    between atoms: _224  and  _225
REMARK   82  A    between atoms: _231  and  _233
REMARK   83  A    between atoms: _233  and  _234
REMARK   84  A    between atoms: _233  and  _236
REMARK   85  A    between atoms: _236  and  _237
REMARK   86  A    between atoms: _242  and  _243
REMARK   87  A    between atoms: _245  and  _247
REMARK   88  A    between atoms: _247  and  _248
REMARK   89  A    between atoms: _247  and  _250
REMARK   90  A    between atoms: _250  and  _251
REMARK   91  A    between atoms: _254  and  _256
REMARK   92  A    between atoms: _256  and  _257
REMARK   93  A    between atoms: _256  and  _259
REMARK   94  A    between atoms: _259  and  _260
REMARK   95  A    between atoms: _270  and  _272
REMARK   96  A    between atoms: _272  and  _273
REMARK   97  A    between atoms: _272  and  _275
REMARK   98  A    between atoms: _275  and  _276
REMARK   99  A    between atoms: _281  and  _283
REMARK  100  A    between atoms: _283  and  _284
REMARK  101  A    between atoms: _283  and  _286
REMARK  102  A    between atoms: _286  and  _287
REMARK  103  A    between atoms: _291  and  ZN_409
REMARK  104  A    between atoms: _292  and  _294
REMARK  105  A    between atoms: _294  and  _295
REMARK  106  A    between atoms: _294  and  _297
REMARK  107  A    between atoms: _297  and  _298
REMARK  108  A    between atoms: _301  and  _303
REMARK  109  A    between atoms: _303  and  _304
REMARK  110  A    between atoms: _306  and  _308
REMARK  111  A    between atoms: _308  and  _309
REMARK  112  A    between atoms: _308  and  _311
REMARK  113  A    between atoms: _311  and  _312
REMARK  114  A    between atoms: _315  and  _317
REMARK  115  A    between atoms: _317  and  _318
REMARK  116  A    between atoms: _317  and  _320
REMARK  117  A    between atoms: _320  and  _321
REMARK  118  A    between atoms: _324  and  _326
REMARK  119  A    between atoms: _326  and  _327
REMARK  120  A    between atoms: _330  and  _332
REMARK  121  A    between atoms: _332  and  _333
REMARK  122  A    between atoms: _336  and  _338
REMARK  123  A    between atoms: _338  and  _339
REMARK  124  A    between atoms: _338  and  _341
REMARK  125  A    between atoms: _341  and  _342
REMARK  126  A    between atoms: _347  and  _348
REMARK  127  A    between atoms: _350  and  _352
REMARK  128  A    between atoms: _352  and  _353
REMARK  129  A    between atoms: _352  and  _355
REMARK  130  A    between atoms: _355  and  _356
REMARK  131  A    between atoms: _359  and  _361
REMARK  132  A    between atoms: _361  and  _362
REMARK  133  A    between atoms: _361  and  _364
REMARK  134  A    between atoms: _364  and  _365
REMARK  135  A    between atoms: _368  and  _370
REMARK  136  A    between atoms: _370  and  _371
REMARK  137  A    between atoms: _370  and  _373
REMARK  138  A    between atoms: _373  and  _374
REMARK  139  A    between atoms: _374  and  _375
REMARK  140  A    between atoms: _378  and  _380
REMARK  141  A    between atoms: _380  and  _381
REMARK  142  A    between atoms: _380  and  _383
REMARK  143  A    between atoms: _383  and  _384
REMARK  144  A    between atoms: _384  and  _385
REMARK  145  A    between atoms: _385  and  _386
REMARK  146  A    between atoms: _395  and  _397
REMARK  147  A    between atoms: _397  and  _398
REMARK  148  A    between atoms: _400  and  _402
REMARK  149  A    between atoms: _402  and  _403
REMARK  150  A    between atoms: _402  and  _405
REMARK  151  A    between atoms: _405  and  _406
REMARK                            x       y       z     vdW  Elec       q    Type
REMARK                         _______ _______ _______ _____ _____    ______ ____
ROOT
ATOM      1  O   HOH     1      29.184  65.492  15.683  0.00  0.00    +0.000 OA
ENDROOT
TORSDOF 0
REMARK  Name = ../refined-set-2016/3dx2/3dx2_pocket.pdb
REMARK  151 active torsions:
REMARK  status: ('A' for Active; 'I' for Inactive)
REMARK    1  A    between atoms: _1  and  _3
REMARK    2  A    between atoms: _14  and  _17
REMARK    3  A    between atoms: _17  and  _18
REMARK    4  A    between atoms: _25  and  _26
REMARK    5  A    between atoms: _33  and  _34
REMARK    6  A    between atoms: _39  and  _41
REMARK    7  A    between atoms: _41  and  _42
REMARK    8  A    between atoms: _44  and  _46
REMARK    9  A    between atoms: _46  and  _47
REMARK   10  A    between atoms: _46  and  _49
REMARK   11  A    between atoms: _49  and  _50
REMARK   12  A    between atoms: _60  and  _62
REMARK   13  A    between atoms: _62  and  _63
REMARK   14  A    between atoms: _62  and  _65
REMARK   15  A    between atoms: _65  and  _66
REMARK   16  A    between atoms: _69  and  _71
REMARK   17  A    between atoms: _71  and  _72
REMARK   18  A    between atoms: _71  and  _74
REMARK   19  A    between atoms: _74  and  _75
REMARK   20  A    between atoms: _80  and  _81
REMARK   21  A    between atoms: _83  and  _85
REMARK   22  A    between atoms: _85  and  _86
REMARK   23  A    between atoms: _85  and  _88
REMARK   24  A    between atoms: _88  and  _89
REMARK   25  A    between atoms: _89  and  _90
REMARK   26  A    between atoms: _93  and  _95
REMARK   27  A    between atoms: _95  and  _96
REMARK   28  A    between atoms: _95  and  _98
REMARK   29  A    between atoms: _98  and  _99
REMARK   30  A    between atoms: _99  and  _100
REMARK   31  A    between atoms: _102  and  _104
REMARK   32  A    between atoms: _104  and  _105
REMARK   33  A    between atoms: _104  and  _107
REMARK   34  A    between atoms: _107  and  _108
REMARK   35  A    between atoms: _111  and  _113
REMARK   36  A    between atoms: _113  and  _114
REMARK   37  A    between atoms: _113  and  _116
REMARK   38  A    between atoms: _116  and  _117
REMARK   39  A    between atoms: _117  and  _119
REMARK   40  A    between atoms: _119  and  ZN_409
REMARK   41  A    between atoms: _121  and  _122
REMARK   42  A    between atoms: _127  and  _129
REMARK   43  A    between atoms: _129  and  _130
REMARK   44  A    between atoms: _129  and  _132
REMARK   45  A    between atoms: _132  and  _133
REMARK   46  A    between atoms: _139  and  _141
REMARK   47  A    between atoms: _141  and  _142
REMARK   48  A    between atoms: _141  and  _144
REMARK   49  A    between atoms: _144  and  _145
REMARK   50  A    between atoms: _145  and  _146
REMARK   51  A    between atoms: _146  and  _147
REMARK   52  A    between atoms: _156  and  _158
REMARK   53  A    between atoms: _158  and  _159
REMARK   54  A    between atoms: _158  and  _161
REMARK   55  A    between atoms: _161  and  _162
REMARK   56  A    between atoms: _167  and  _168
REMARK   57  A    between atoms: _170  and  _172
REMARK   58  A    between atoms: _172  and  _173
REMARK   59  A    between atoms: _172  and  _175
REMARK   60  A    between atoms: _175  and  _176
REMARK   61  A    between atoms: _178  and  _180
REMARK   62  A    between atoms: _180  and  _181
REMARK   63  A    between atoms: _180  and  _183
REMARK   64  A    between atoms: _183  and  _184
REMARK   65  A    between atoms: _189  and  _190
REMARK   66  A    between atoms: _192  and  _194
REMARK   67  A    between atoms: _194  and  _195
REMARK   68  A    between atoms: _194  and  _197
REMARK   69  A    between atoms: _197  and  _198
REMARK   70  A    between atoms: _201  and  _203
REMARK   71  A    between atoms: _203  and  _204
REMARK   72  A    between atoms: _203  and  _206
REMARK   73  A    between atoms: _206  and  _207
REMARK   74  A    between atoms: _210  and  _212
REMARK   75  A    between atoms: _212  and  _213
REMARK   76  A    between atoms: _212  and  _215
REMARK   77  A    between atoms: _215  and  _216
REMARK   78  A    between atoms: _219  and  _221
REMARK   79  A    between atoms: _221  and  _222
REMARK   80  A    between atoms: _221  and  _224
REMARK   81  A    between atoms: _224  and  _225
REMARK   82  A    between atoms: _231  and  _233
REMARK   83  A    between atoms: _233  and  _234
REMARK   84  A    between atoms: _233  and  _236
REMARK   85  A    between atoms: _236  and  _237
REMARK   86  A    between atoms: _242  and  _243
REMARK   87  A    between atoms: _245  and  _247
REMARK   88  A    between atoms: _247  and  _248
REMARK   89  A    between atoms: _247  and  _250
REMARK   90  A    between atoms: _250  and  _251
REMARK   91  A    between atoms: _254  and  _256
REMARK   92  A    between atoms: _256  and  _257
REMARK   93  A    between atoms: _256  and  _259
REMARK   94  A    between atoms: _259  and  _260
REMARK   95  A    between atoms: _270  and  _272
REMARK   96  A    between atoms: _272  and  _273
REMARK   97  A    between atoms: _272  and  _275
REMARK   98  A    between atoms: _275  and  _276
REMARK   99  A    between atoms: _281  and  _283
REMARK  100  A    between atoms: _283  and  _284
REMARK  101  A    between atoms: _283  and  _286
REMARK  102  A    between atoms: _286  and  _287
REMARK  103  A    between atoms: _291  and  ZN_409
REMARK  104  A    between atoms: _292  and  _294
REMARK  105  A    between atoms: _294  and  _295
REMARK  106  A    between atoms: _294  and  _297
REMARK  107  A    between atoms: _297  and  _298
REMARK  108  A    between atoms: _301  and  _303
REMARK  109  A    between atoms: _303  and  _304
REMARK  110  A    between atoms: _306  and  _308
REMARK  111  A    between atoms: _308  and  _309
REMARK  112  A    between atoms: _308  and  _311
REMARK  113  A    between atoms: _311  and  _312
REMARK  114  A    between atoms: _315  and  _317
REMARK  115  A    between atoms: _317  and  _318
REMARK  116  A    between atoms: _317  and  _320
REMARK  117  A    between atoms: _320  and  _321
REMARK  118  A    between atoms: _324  and  _326
REMARK  119  A    between atoms: _326  and  _327
REMARK  120  A    between atoms: _330  and  _332
REMARK  121  A    between atoms: _332  and  _333
REMARK  122  A    between atoms: _336  and  _338
REMARK  123  A    between atoms: _338  and  _339
REMARK  124  A    between atoms: _338  and  _341
REMARK  125  A    between atoms: _341  and  _342
REMARK  126  A    between atoms: _347  and  _348
REMARK  127  A    between atoms: _350  and  _352
REMARK  128  A    between atoms: _352  and  _353
REMARK  129  A    between atoms: _352  and  _355
REMARK  130  A    between atoms: _355  and  _356
REMARK  131  A    between atoms: _359  and  _361
REMARK  132  A    between atoms: _361  and  _362
REMARK  133  A    between atoms: _361  and  _364
REMARK  134  A    between atoms: _364  and  _365
REMARK  135  A    between atoms: _368  and  _370
REMARK  136  A    between atoms: _370  and  _371
REMARK  137  A    between atoms: _370  and  _373
REMARK  138  A    between atoms: _373  and  _374
REMARK  139  A    between atoms: _374  and  _375
REMARK  140  A    between atoms: _378  and  _380
REMARK  141  A    between atoms: _380  and  _381
REMARK  142  A    between atoms: _380  and  _383
REMARK  143  A    between atoms: _383  and  _384
REMARK  144  A    between atoms: _384  and  _385
REMARK  145  A    between atoms: _385  and  _386
REMARK  146  A    between atoms: _395  and  _397
REMARK  147  A    between atoms: _397  and  _398
REMARK  148  A    between atoms: _400  and  _402
REMARK  149  A    between atoms: _402  and  _403
REMARK  150  A    between atoms: _402  and  _405
REMARK  151  A    between atoms: _405  and  _406
REMARK                            x       y       z     vdW  Elec       q    Type
REMARK                         _______ _______ _______ _____ _____    ______ ____
ROOT
ATOM      1  O   HOH     1      28.396  63.292  13.934  0.00  0.00    +0.000 OA
ENDROOT
TORSDOF 0
REMARK  Name = ../refined-set-2016/3dx2/3dx2_pocket.pdb
REMARK  151 active torsions:
REMARK  status: ('A' for Active; 'I' for Inactive)
REMARK    1  A    between atoms: _1  and  _3
REMARK    2  A    between atoms: _14  and  _17
REMARK    3  A    between atoms: _17  and  _18
REMARK    4  A    between atoms: _25  and  _26
REMARK    5  A    between atoms: _33  and  _34
REMARK    6  A    between atoms: _39  and  _41
REMARK    7  A    between atoms: _41  and  _42
REMARK    8  A    between atoms: _44  and  _46
REMARK    9  A    between atoms: _46  and  _47
REMARK   10  A    between atoms: _46  and  _49
REMARK   11  A    between atoms: _49  and  _50
REMARK   12  A    between atoms: _60  and  _62
REMARK   13  A    between atoms: _62  and  _63
REMARK   14  A    between atoms: _62  and  _65
REMARK   15  A    between atoms: _65  and  _66
REMARK   16  A    between atoms: _69  and  _71
REMARK   17  A    between atoms: _71  and  _72
REMARK   18  A    between atoms: _71  and  _74
REMARK   19  A    between atoms: _74  and  _75
REMARK   20  A    between atoms: _80  and  _81
REMARK   21  A    between atoms: _83  and  _85
REMARK   22  A    between atoms: _85  and  _86
REMARK   23  A    between atoms: _85  and  _88
REMARK   24  A    between atoms: _88  and  _89
REMARK   25  A    between atoms: _89  and  _90
REMARK   26  A    between atoms: _93  and  _95
REMARK   27  A    between atoms: _95  and  _96
REMARK   28  A    between atoms: _95  and  _98
REMARK   29  A    between atoms: _98  and  _99
REMARK   30  A    between atoms: _99  and  _100
REMARK   31  A    between atoms: _102  and  _104
REMARK   32  A    between atoms: _104  and  _105
REMARK   33  A    between atoms: _104  and  _107
REMARK   34  A    between atoms: _107  and  _108
REMARK   35  A    between atoms: _111  and  _113
REMARK   36  A    between atoms: _113  and  _114
REMARK   37  A    between atoms: _113  and  _116
REMARK   38  A    between atoms: _116  and  _117
REMARK   39  A    between atoms: _117  and  _119
REMARK   40  A    between atoms: _119  and  ZN_409
REMARK   41  A    between atoms: _121  and  _122
REMARK   42  A    between atoms: _127  and  _129
REMARK   43  A    between atoms: _129  and  _130
REMARK   44  A    between atoms: _129  and  _132
REMARK   45  A    between atoms: _132  and  _133
REMARK   46  A    between atoms: _139  and  _141
REMARK   47  A    between atoms: _141  and  _142
REMARK   48  A    between atoms: _141  and  _144
REMARK   49  A    between atoms: _144  and  _145
REMARK   50  A    between atoms: _145  and  _146
REMARK   51  A    between atoms: _146  and  _147
REMARK   52  A    between atoms: _156  and  _158
REMARK   53  A    between atoms: _158  and  _159
REMARK   54  A    between atoms: _158  and  _161
REMARK   55  A    between atoms: _161  and  _162
REMARK   56  A    between atoms: _167  and  _168
REMARK   57  A    between atoms: _170  and  _172
REMARK   58  A    between atoms: _172  and  _173
REMARK   59  A    between atoms: _172  and  _175
REMARK   60  A    between atoms: _175  and  _176
REMARK   61  A    between atoms: _178  and  _180
REMARK   62  A    between atoms: _180  and  _181
REMARK   63  A    between atoms: _180  and  _183
REMARK   64  A    between atoms: _183  and  _184
REMARK   65  A    between atoms: _189  and  _190
REMARK   66  A    between atoms: _192  and  _194
REMARK   67  A    between atoms: _194  and  _195
REMARK   68  A    between atoms: _194  and  _197
REMARK   69  A    between atoms: _197  and  _198
REMARK   70  A    between atoms: _201  and  _203
REMARK   71  A    between atoms: _203  and  _204
REMARK   72  A    between atoms: _203  and  _206
REMARK   73  A    between atoms: _206  and  _207
REMARK   74  A    between atoms: _210  and  _212
REMARK   75  A    between atoms: _212  and  _213
REMARK   76  A    between atoms: _212  and  _215
REMARK   77  A    between atoms: _215  and  _216
REMARK   78  A    between atoms: _219  and  _221
REMARK   79  A    between atoms: _221  and  _222
REMARK   80  A    between atoms: _221  and  _224
REMARK   81  A    between atoms: _224  and  _225
REMARK   82  A    between atoms: _231  and  _233
REMARK   83  A    between atoms: _233  and  _234
REMARK   84  A    between atoms: _233  and  _236
REMARK   85  A    between atoms: _236  and  _237
REMARK   86  A    between atoms: _242  and  _243
REMARK   87  A    between atoms: _245  and  _247
REMARK   88  A    between atoms: _247  and  _248
REMARK   89  A    between atoms: _247  and  _250
REMARK   90  A    between atoms: _250  and  _251
REMARK   91  A    between atoms: _254  and  _256
REMARK   92  A    between atoms: _256  and  _257
REMARK   93  A    between atoms: _256  and  _259
REMARK   94  A    between atoms: _259  and  _260
REMARK   95  A    between atoms: _270  and  _272
REMARK   96  A    between atoms: _272  and  _273
REMARK   97  A    between atoms: _272  and  _275
REMARK   98  A    between atoms: _275  and  _276
REMARK   99  A    between atoms: _281  and  _283
REMARK  100  A    between atoms: _283  and  _284
REMARK  101  A    between atoms: _283  and  _286
REMARK  102  A    between atoms: _286  and  _287
REMARK  103  A    between atoms: _291  and  ZN_409
REMARK  104  A    between atoms: _292  and  _294
REMARK  105  A    between atoms: _294  and  _295
REMARK  106  A    between atoms: _294  and  _297
REMARK  107  A    between atoms: _297  and  _298
REMARK  108  A    between atoms: _301  and  _303
REMARK  109  A    between atoms: _303  and  _304
REMARK  110  A    between atoms: _306  and  _308
REMARK  111  A    between atoms: _308  and  _309
REMARK  112  A    between atoms: _308  and  _311
REMARK  113  A    between atoms: _311  and  _312
REMARK  114  A    between atoms: _315  and  _317
REMARK  115  A    between atoms: _317  and  _318
REMARK  116  A    between atoms: _317  and  _320
REMARK  117  A    between atoms: _320  and  _321
REMARK  118  A    between atoms: _324  and  _326
REMARK  119  A    between atoms: _326  and  _327
REMARK  120  A    between atoms: _330  and  _332
REMARK  121  A    between atoms: _332  and  _333
REMARK  122  A    between atoms: _336  and  _338
REMARK  123  A    between atoms: _338  and  _339
REMARK  124  A    between atoms: _338  and  _341
REMARK  125  A    between atoms: _341  and  _342
REMARK  126  A    between atoms: _347  and  _348
REMARK  127  A    between atoms: _350  and  _352
REMARK  128  A    between atoms: _352  and  _353
REMARK  129  A    between atoms: _352  and  _355
REMARK  130  A    between atoms: _355  and  _356
REMARK  131  A    between atoms: _359  and  _361
REMARK  132  A    between atoms: _361  and  _362
REMARK  133  A    between atoms: _361  and  _364
REMARK  134  A    between atoms: _364  and  _365
REMARK  135  A    between atoms: _368  and  _370
REMARK  136  A    between atoms: _370  and  _371
REMARK  137  A    between atoms: _370  and  _373
REMARK  138  A    between atoms: _373  and  _374
REMARK  139  A    between atoms: _374  and  _375
REMARK  140  A    between atoms: _378  and  _380
REMARK  141  A    between atoms: _380  and  _381
REMARK  142  A    between atoms: _380  and  _383
REMARK  143  A    between atoms: _383  and  _384
REMARK  144  A    between atoms: _384  and  _385
REMARK  145  A    between atoms: _385  and  _386
REMARK  146  A    between atoms: _395  and  _397
REMARK  147  A    between atoms: _397  and  _398
REMARK  148  A    between atoms: _400  and  _402
REMARK  149  A    between atoms: _402  and  _403
REMARK  150  A    between atoms: _402  and  _405
REMARK  151  A    between atoms: _405  and  _406
REMARK                            x       y       z     vdW  Elec       q    Type
REMARK                         _______ _______ _______ _____ _____    ______ ____
ROOT
ATOM      1  O   HOH     1      28.501  62.982  10.907  0.00  0.00    +0.000 OA
ENDROOT
TORSDOF 0
REMARK  Name = ../refined-set-2016/3dx2/3dx2_pocket.pdb
REMARK  151 active torsions:
REMARK  status: ('A' for Active; 'I' for Inactive)
REMARK    1  A    between atoms: _1  and  _3
REMARK    2  A    between atoms: _14  and  _17
REMARK    3  A    between atoms: _17  and  _18
REMARK    4  A    between atoms: _25  and  _26
REMARK    5  A    between atoms: _33  and  _34
REMARK    6  A    between atoms: _39  and  _41
REMARK    7  A    between atoms: _41  and  _42
REMARK    8  A    between atoms: _44  and  _46
REMARK    9  A    between atoms: _46  and  _47
REMARK   10  A    between atoms: _46  and  _49
REMARK   11  A    between atoms: _49  and  _50
REMARK   12  A    between atoms: _60  and  _62
REMARK   13  A    between atoms: _62  and  _63
REMARK   14  A    between atoms: _62  and  _65
REMARK   15  A    between atoms: _65  and  _66
REMARK   16  A    between atoms: _69  and  _71
REMARK   17  A    between atoms: _71  and  _72
REMARK   18  A    between atoms: _71  and  _74
REMARK   19  A    between atoms: _74  and  _75
REMARK   20  A    between atoms: _80  and  _81
REMARK   21  A    between atoms: _83  and  _85
REMARK   22  A    between atoms: _85  and  _86
REMARK   23  A    between atoms: _85  and  _88
REMARK   24  A    between atoms: _88  and  _89
REMARK   25  A    between atoms: _89  and  _90
REMARK   26  A    between atoms: _93  and  _95
REMARK   27  A    between atoms: _95  and  _96
REMARK   28  A    between atoms: _95  and  _98
REMARK   29  A    between atoms: _98  and  _99
REMARK   30  A    between atoms: _99  and  _100
REMARK   31  A    between atoms: _102  and  _104
REMARK   32  A    between atoms: _104  and  _105
REMARK   33  A    between atoms: _104  and  _107
REMARK   34  A    between atoms: _107  and  _108
REMARK   35  A    between atoms: _111  and  _113
REMARK   36  A    between atoms: _113  and  _114
REMARK   37  A    between atoms: _113  and  _116
REMARK   38  A    between atoms: _116  and  _117
REMARK   39  A    between atoms: _117  and  _119
REMARK   40  A    between atoms: _119  and  ZN_409
REMARK   41  A    between atoms: _121  and  _122
REMARK   42  A    between atoms: _127  and  _129
REMARK   43  A    between atoms: _129  and  _130
REMARK   44  A    between atoms: _129  and  _132
REMARK   45  A    between atoms: _132  and  _133
REMARK   46  A    between atoms: _139  and  _141
REMARK   47  A    between atoms: _141  and  _142
REMARK   48  A    between atoms: _141  and  _144
REMARK   49  A    between atoms: _144  and  _145
REMARK   50  A    between atoms: _145  and  _146
REMARK   51  A    between atoms: _146  and  _147
REMARK   52  A    between atoms: _156  and  _158
REMARK   53  A    between atoms: _158  and  _159
REMARK   54  A    between atoms: _158  and  _161
REMARK   55  A    between atoms: _161  and  _162
REMARK   56  A    between atoms: _167  and  _168
REMARK   57  A    between atoms: _170  and  _172
REMARK   58  A    between atoms: _172  and  _173
REMARK   59  A    between atoms: _172  and  _175
REMARK   60  A    between atoms: _175  and  _176
REMARK   61  A    between atoms: _178  and  _180
REMARK   62  A    between atoms: _180  and  _181
REMARK   63  A    between atoms: _180  and  _183
REMARK   64  A    between atoms: _183  and  _184
REMARK   65  A    between atoms: _189  and  _190
REMARK   66  A    between atoms: _192  and  _194
REMARK   67  A    between atoms: _194  and  _195
REMARK   68  A    between atoms: _194  and  _197
REMARK   69  A    between atoms: _197  and  _198
REMARK   70  A    between atoms: _201  and  _203
REMARK   71  A    between atoms: _203  and  _204
REMARK   72  A    between atoms: _203  and  _206
REMARK   73  A    between atoms: _206  and  _207
REMARK   74  A    between atoms: _210  and  _212
REMARK   75  A    between atoms: _212  and  _213
REMARK   76  A    between atoms: _212  and  _215
REMARK   77  A    between atoms: _215  and  _216
REMARK   78  A    between atoms: _219  and  _221
REMARK   79  A    between atoms: _221  and  _222
REMARK   80  A    between atoms: _221  and  _224
REMARK   81  A    between atoms: _224  and  _225
REMARK   82  A    between atoms: _231  and  _233
REMARK   83  A    between atoms: _233  and  _234
REMARK   84  A    between atoms: _233  and  _236
REMARK   85  A    between atoms: _236  and  _237
REMARK   86  A    between atoms: _242  and  _243
REMARK   87  A    between atoms: _245  and  _247
REMARK   88  A    between atoms: _247  and  _248
REMARK   89  A    between atoms: _247  and  _250
REMARK   90  A    between atoms: _250  and  _251
REMARK   91  A    between atoms: _254  and  _256
REMARK   92  A    between atoms: _256  and  _257
REMARK   93  A    between atoms: _256  and  _259
REMARK   94  A    between atoms: _259  and  _260
REMARK   95  A    between atoms: _270  and  _272
REMARK   96  A    between atoms: _272  and  _273
REMARK   97  A    between atoms: _272  and  _275
REMARK   98  A    between atoms: _275  and  _276
REMARK   99  A    between atoms: _281  and  _283
REMARK  100  A    between atoms: _283  and  _284
REMARK  101  A    between atoms: _283  and  _286
REMARK  102  A    between atoms: _286  and  _287
REMARK  103  A    between atoms: _291  and  ZN_409
REMARK  104  A    between atoms: _292  and  _294
REMARK  105  A    between atoms: _294  and  _295
REMARK  106  A    between atoms: _294  and  _297
REMARK  107  A    between atoms: _297  and  _298
REMARK  108  A    between atoms: _301  and  _303
REMARK  109  A    between atoms: _303  and  _304
REMARK  110  A    between atoms: _306  and  _308
REMARK  111  A    between atoms: _308  and  _309
REMARK  112  A    between atoms: _308  and  _311
REMARK  113  A    between atoms: _311  and  _312
REMARK  114  A    between atoms: _315  and  _317
REMARK  115  A    between atoms: _317  and  _318
REMARK  116  A    between atoms: _317  and  _320
REMARK  117  A    between atoms: _320  and  _321
REMARK  118  A    between atoms: _324  and  _326
REMARK  119  A    between atoms: _326  and  _327
REMARK  120  A    between atoms: _330  and  _332
REMARK  121  A    between atoms: _332  and  _333
REMARK  122  A    between atoms: _336  and  _338
REMARK  123  A    between atoms: _338  and  _339
REMARK  124  A    between atoms: _338  and  _341
REMARK  125  A    between atoms: _341  and  _342
REMARK  126  A    between atoms: _347  and  _348
REMARK  127  A    between atoms: _350  and  _352
REMARK  128  A    between atoms: _352  and  _353
REMARK  129  A    between atoms: _352  and  _355
REMARK  130  A    between atoms: _355  and  _356
REMARK  131  A    between atoms: _359  and  _361
REMARK  132  A    between atoms: _361  and  _362
REMARK  133  A    between atoms: _361  and  _364
REMARK  134  A    between atoms: _364  and  _365
REMARK  135  A    between atoms: _368  and  _370
REMARK  136  A    between atoms: _370  and  _371
REMARK  137  A    between atoms: _370  and  _373
REMARK  138  A    between atoms: _373  and  _374
REMARK  139  A    between atoms: _374  and  _375
REMARK  140  A    between atoms: _378  and  _380
REMARK  141  A    between atoms: _380  and  _381
REMARK  142  A    between atoms: _380  and  _383
REMARK  143  A    between atoms: _383  and  _384
REMARK  144  A    between atoms: _384  and  _385
REMARK  145  A    between atoms: _385  and  _386
REMARK  146  A    between atoms: _395  and  _397
REMARK  147  A    between atoms: _397  and  _398
REMARK  148  A    between atoms: _400  and  _402
REMARK  149  A    between atoms: _402  and  _403
REMARK  150  A    between atoms: _402  and  _405
REMARK  151  A    between atoms: _405  and  _406
REMARK                            x       y       z     vdW  Elec       q    Type
REMARK                         _______ _______ _______ _____ _____    ______ ____
ROOT
ATOM      1  O   HOH     1      25.877  72.346   5.987  0.00  0.00    +0.000 OA
ENDROOT
TORSDOF 0
REMARK  Name = ../refined-set-2016/3dx2/3dx2_pocket.pdb
REMARK  151 active torsions:
REMARK  status: ('A' for Active; 'I' for Inactive)
REMARK    1  A    between atoms: _1  and  _3
REMARK    2  A    between atoms: _14  and  _17
REMARK    3  A    between atoms: _17  and  _18
REMARK    4  A    between atoms: _25  and  _26
REMARK    5  A    between atoms: _33  and  _34
REMARK    6  A    between atoms: _39  and  _41
REMARK    7  A    between atoms: _41  and  _42
REMARK    8  A    between atoms: _44  and  _46
REMARK    9  A    between atoms: _46  and  _47
REMARK   10  A    between atoms: _46  and  _49
REMARK   11  A    between atoms: _49  and  _50
REMARK   12  A    between atoms: _60  and  _62
REMARK   13  A    between atoms: _62  and  _63
REMARK   14  A    between atoms: _62  and  _65
REMARK   15  A    between atoms: _65  and  _66
REMARK   16  A    between atoms: _69  and  _71
REMARK   17  A    between atoms: _71  and  _72
REMARK   18  A    between atoms: _71  and  _74
REMARK   19  A    between atoms: _74  and  _75
REMARK   20  A    between atoms: _80  and  _81
REMARK   21  A    between atoms: _83  and  _85
REMARK   22  A    between atoms: _85  and  _86
REMARK   23  A    between atoms: _85  and  _88
REMARK   24  A    between atoms: _88  and  _89
REMARK   25  A    between atoms: _89  and  _90
REMARK   26  A    between atoms: _93  and  _95
REMARK   27  A    between atoms: _95  and  _96
REMARK   28  A    between atoms: _95  and  _98
REMARK   29  A    between atoms: _98  and  _99
REMARK   30  A    between atoms: _99  and  _100
REMARK   31  A    between atoms: _102  and  _104
REMARK   32  A    between atoms: _104  and  _105
REMARK   33  A    between atoms: _104  and  _107
REMARK   34  A    between atoms: _107  and  _108
REMARK   35  A    between atoms: _111  and  _113
REMARK   36  A    between atoms: _113  and  _114
REMARK   37  A    between atoms: _113  and  _116
REMARK   38  A    between atoms: _116  and  _117
REMARK   39  A    between atoms: _117  and  _119
REMARK   40  A    between atoms: _119  and  ZN_409
REMARK   41  A    between atoms: _121  and  _122
REMARK   42  A    between atoms: _127  and  _129
REMARK   43  A    between atoms: _129  and  _130
REMARK   44  A    between atoms: _129  and  _132
REMARK   45  A    between atoms: _132  and  _133
REMARK   46  A    between atoms: _139  and  _141
REMARK   47  A    between atoms: _141  and  _142
REMARK   48  A    between atoms: _141  and  _144
REMARK   49  A    between atoms: _144  and  _145
REMARK   50  A    between atoms: _145  and  _146
REMARK   51  A    between atoms: _146  and  _147
REMARK   52  A    between atoms: _156  and  _158
REMARK   53  A    between atoms: _158  and  _159
REMARK   54  A    between atoms: _158  and  _161
REMARK   55  A    between atoms: _161  and  _162
REMARK   56  A    between atoms: _167  and  _168
REMARK   57  A    between atoms: _170  and  _172
REMARK   58  A    between atoms: _172  and  _173
REMARK   59  A    between atoms: _172  and  _175
REMARK   60  A    between atoms: _175  and  _176
REMARK   61  A    between atoms: _178  and  _180
REMARK   62  A    between atoms: _180  and  _181
REMARK   63  A    between atoms: _180  and  _183
REMARK   64  A    between atoms: _183  and  _184
REMARK   65  A    between atoms: _189  and  _190
REMARK   66  A    between atoms: _192  and  _194
REMARK   67  A    between atoms: _194  and  _195
REMARK   68  A    between atoms: _194  and  _197
REMARK   69  A    between atoms: _197  and  _198
REMARK   70  A    between atoms: _201  and  _203
REMARK   71  A    between atoms: _203  and  _204
REMARK   72  A    between atoms: _203  and  _206
REMARK   73  A    between atoms: _206  and  _207
REMARK   74  A    between atoms: _210  and  _212
REMARK   75  A    between atoms: _212  and  _213
REMARK   76  A    between atoms: _212  and  _215
REMARK   77  A    between atoms: _215  and  _216
REMARK   78  A    between atoms: _219  and  _221
REMARK   79  A    between atoms: _221  and  _222
REMARK   80  A    between atoms: _221  and  _224
REMARK   81  A    between atoms: _224  and  _225
REMARK   82  A    between atoms: _231  and  _233
REMARK   83  A    between atoms: _233  and  _234
REMARK   84  A    between atoms: _233  and  _236
REMARK   85  A    between atoms: _236  and  _237
REMARK   86  A    between atoms: _242  and  _243
REMARK   87  A    between atoms: _245  and  _247
REMARK   88  A    between atoms: _247  and  _248
REMARK   89  A    between atoms: _247  and  _250
REMARK   90  A    between atoms: _250  and  _251
REMARK   91  A    between atoms: _254  and  _256
REMARK   92  A    between atoms: _256  and  _257
REMARK   93  A    between atoms: _256  and  _259
REMARK   94  A    between atoms: _259  and  _260
REMARK   95  A    between atoms: _270  and  _272
REMARK   96  A    between atoms: _272  and  _273
REMARK   97  A    between atoms: _272  and  _275
REMARK   98  A    between atoms: _275  and  _276
REMARK   99  A    between atoms: _281  and  _283
REMARK  100  A    between atoms: _283  and  _284
REMARK  101  A    between atoms: _283  and  _286
REMARK  102  A    between atoms: _286  and  _287
REMARK  103  A    between atoms: _291  and  ZN_409
REMARK  104  A    between atoms: _292  and  _294
REMARK  105  A    between atoms: _294  and  _295
REMARK  106  A    between atoms: _294  and  _297
REMARK  107  A    between atoms: _297  and  _298
REMARK  108  A    between atoms: _301  and  _303
REMARK  109  A    between atoms: _303  and  _304
REMARK  110  A    between atoms: _306  and  _308
REMARK  111  A    between atoms: _308  and  _309
REMARK  112  A    between atoms: _308  and  _311
REMARK  113  A    between atoms: _311  and  _312
REMARK  114  A    between atoms: _315  and  _317
REMARK  115  A    between atoms: _317  and  _318
REMARK  116  A    between atoms: _317  and  _320
REMARK  117  A    between atoms: _320  and  _321
REMARK  118  A    between atoms: _324  and  _326
REMARK  119  A    between atoms: _326  and  _327
REMARK  120  A    between atoms: _330  and  _332
REMARK  121  A    between atoms: _332  and  _333
REMARK  122  A    between atoms: _336  and  _338
REMARK  123  A    between atoms: _338  and  _339
REMARK  124  A    between atoms: _338  and  _341
REMARK  125  A    between atoms: _341  and  _342
REMARK  126  A    between atoms: _347  and  _348
REMARK  127  A    between atoms: _350  and  _352
REMARK  128  A    between atoms: _352  and  _353
REMARK  129  A    between atoms: _352  and  _355
REMARK  130  A    between atoms: _355  and  _356
REMARK  131  A    between atoms: _359  and  _361
REMARK  132  A    between atoms: _361  and  _362
REMARK  133  A    between atoms: _361  and  _364
REMARK  134  A    between atoms: _364  and  _365
REMARK  135  A    between atoms: _368  and  _370
REMARK  136  A    between atoms: _370  and  _371
REMARK  137  A    between atoms: _370  and  _373
REMARK  138  A    between atoms: _373  and  _374
REMARK  139  A    between atoms: _374  and  _375
REMARK  140  A    between atoms: _378  and  _380
REMARK  141  A    between atoms: _380  and  _381
REMARK  142  A    between atoms: _380  and  _383
REMARK  143  A    between atoms: _383  and  _384
REMARK  144  A    between atoms: _384  and  _385
REMARK  145  A    between atoms: _385  and  _386
REMARK  146  A    between atoms: _395  and  _397
REMARK  147  A    between atoms: _397  and  _398
REMARK  148  A    between atoms: _400  and  _402
REMARK  149  A    between atoms: _402  and  _403
REMARK  150  A    between atoms: _402  and  _405
REMARK  151  A    between atoms: _405  and  _406
REMARK                            x       y       z     vdW  Elec       q    Type
REMARK                         _______ _______ _______ _____ _____    ______ ____
ROOT
ATOM      1  O   HOH     1      33.008  62.486   0.289  0.00  0.00    +0.000 OA
ENDROOT
TORSDOF 0
REMARK  Name = ../refined-set-2016/3dx2/3dx2_pocket.pdb
REMARK  151 active torsions:
REMARK  status: ('A' for Active; 'I' for Inactive)
REMARK    1  A    between atoms: _1  and  _3
REMARK    2  A    between atoms: _14  and  _17
REMARK    3  A    between atoms: _17  and  _18
REMARK    4  A    between atoms: _25  and  _26
REMARK    5  A    between atoms: _33  and  _34
REMARK    6  A    between atoms: _39  and  _41
REMARK    7  A    between atoms: _41  and  _42
REMARK    8  A    between atoms: _44  and  _46
REMARK    9  A    between atoms: _46  and  _47
REMARK   10  A    between atoms: _46  and  _49
REMARK   11  A    between atoms: _49  and  _50
REMARK   12  A    between atoms: _60  and  _62
REMARK   13  A    between atoms: _62  and  _63
REMARK   14  A    between atoms: _62  and  _65
REMARK   15  A    between atoms: _65  and  _66
REMARK   16  A    between atoms: _69  and  _71
REMARK   17  A    between atoms: _71  and  _72
REMARK   18  A    between atoms: _71  and  _74
REMARK   19  A    between atoms: _74  and  _75
REMARK   20  A    between atoms: _80  and  _81
REMARK   21  A    between atoms: _83  and  _85
REMARK   22  A    between atoms: _85  and  _86
REMARK   23  A    between atoms: _85  and  _88
REMARK   24  A    between atoms: _88  and  _89
REMARK   25  A    between atoms: _89  and  _90
REMARK   26  A    between atoms: _93  and  _95
REMARK   27  A    between atoms: _95  and  _96
REMARK   28  A    between atoms: _95  and  _98
REMARK   29  A    between atoms: _98  and  _99
REMARK   30  A    between atoms: _99  and  _100
REMARK   31  A    between atoms: _102  and  _104
REMARK   32  A    between atoms: _104  and  _105
REMARK   33  A    between atoms: _104  and  _107
REMARK   34  A    between atoms: _107  and  _108
REMARK   35  A    between atoms: _111  and  _113
REMARK   36  A    between atoms: _113  and  _114
REMARK   37  A    between atoms: _113  and  _116
REMARK   38  A    between atoms: _116  and  _117
REMARK   39  A    between atoms: _117  and  _119
REMARK   40  A    between atoms: _119  and  ZN_409
REMARK   41  A    between atoms: _121  and  _122
REMARK   42  A    between atoms: _127  and  _129
REMARK   43  A    between atoms: _129  and  _130
REMARK   44  A    between atoms: _129  and  _132
REMARK   45  A    between atoms: _132  and  _133
REMARK   46  A    between atoms: _139  and  _141
REMARK   47  A    between atoms: _141  and  _142
REMARK   48  A    between atoms: _141  and  _144
REMARK   49  A    between atoms: _144  and  _145
REMARK   50  A    between atoms: _145  and  _146
REMARK   51  A    between atoms: _146  and  _147
REMARK   52  A    between atoms: _156  and  _158
REMARK   53  A    between atoms: _158  and  _159
REMARK   54  A    between atoms: _158  and  _161
REMARK   55  A    between atoms: _161  and  _162
REMARK   56  A    between atoms: _167  and  _168
REMARK   57  A    between atoms: _170  and  _172
REMARK   58  A    between atoms: _172  and  _173
REMARK   59  A    between atoms: _172  and  _175
REMARK   60  A    between atoms: _175  and  _176
REMARK   61  A    between atoms: _178  and  _180
REMARK   62  A    between atoms: _180  and  _181
REMARK   63  A    between atoms: _180  and  _183
REMARK   64  A    between atoms: _183  and  _184
REMARK   65  A    between atoms: _189  and  _190
REMARK   66  A    between atoms: _192  and  _194
REMARK   67  A    between atoms: _194  and  _195
REMARK   68  A    between atoms: _194  and  _197
REMARK   69  A    between atoms: _197  and  _198
REMARK   70  A    between atoms: _201  and  _203
REMARK   71  A    between atoms: _203  and  _204
REMARK   72  A    between atoms: _203  and  _206
REMARK   73  A    between atoms: _206  and  _207
REMARK   74  A    between atoms: _210  and  _212
REMARK   75  A    between atoms: _212  and  _213
REMARK   76  A    between atoms: _212  and  _215
REMARK   77  A    between atoms: _215  and  _216
REMARK   78  A    between atoms: _219  and  _221
REMARK   79  A    between atoms: _221  and  _222
REMARK   80  A    between atoms: _221  and  _224
REMARK   81  A    between atoms: _224  and  _225
REMARK   82  A    between atoms: _231  and  _233
REMARK   83  A    between atoms: _233  and  _234
REMARK   84  A    between atoms: _233  and  _236
REMARK   85  A    between atoms: _236  and  _237
REMARK   86  A    between atoms: _242  and  _243
REMARK   87  A    between atoms: _245  and  _247
REMARK   88  A    between atoms: _247  and  _248
REMARK   89  A    between atoms: _247  and  _250
REMARK   90  A    between atoms: _250  and  _251
REMARK   91  A    between atoms: _254  and  _256
REMARK   92  A    between atoms: _256  and  _257
REMARK   93  A    between atoms: _256  and  _259
REMARK   94  A    between atoms: _259  and  _260
REMARK   95  A    between atoms: _270  and  _272
REMARK   96  A    between atoms: _272  and  _273
REMARK   97  A    between atoms: _272  and  _275
REMARK   98  A    between atoms: _275  and  _276
REMARK   99  A    between atoms: _281  and  _283
REMARK  100  A    between atoms: _283  and  _284
REMARK  101  A    between atoms: _283  and  _286
REMARK  102  A    between atoms: _286  and  _287
REMARK  103  A    between atoms: _291  and  ZN_409
REMARK  104  A    between atoms: _292  and  _294
REMARK  105  A    between atoms: _294  and  _295
REMARK  106  A    between atoms: _294  and  _297
REMARK  107  A    between atoms: _297  and  _298
REMARK  108  A    between atoms: _301  and  _303
REMARK  109  A    between atoms: _303  and  _304
REMARK  110  A    between atoms: _306  and  _308
REMARK  111  A    between atoms: _308  and  _309
REMARK  112  A    between atoms: _308  and  _311
REMARK  113  A    between atoms: _311  and  _312
REMARK  114  A    between atoms: _315  and  _317
REMARK  115  A    between atoms: _317  and  _318
REMARK  116  A    between atoms: _317  and  _320
REMARK  117  A    between atoms: _320  and  _321
REMARK  118  A    between atoms: _324  and  _326
REMARK  119  A    between atoms: _326  and  _327
REMARK  120  A    between atoms: _330  and  _332
REMARK  121  A    between atoms: _332  and  _333
REMARK  122  A    between atoms: _336  and  _338
REMARK  123  A    between atoms: _338  and  _339
REMARK  124  A    between atoms: _338  and  _341
REMARK  125  A    between atoms: _341  and  _342
REMARK  126  A    between atoms: _347  and  _348
REMARK  127  A    between atoms: _350  and  _352
REMARK  128  A    between atoms: _352  and  _353
REMARK  129  A    between atoms: _352  and  _355
REMARK  130  A    between atoms: _355  and  _356
REMARK  131  A    between atoms: _359  and  _361
REMARK  132  A    between atoms: _361  and  _362
REMARK  133  A    between atoms: _361  and  _364
REMARK  134  A    between atoms: _364  and  _365
REMARK  135  A    between atoms: _368  and  _370
REMARK  136  A    between atoms: _370  and  _371
REMARK  137  A    between atoms: _370  and  _373
REMARK  138  A    between atoms: _373  and  _374
REMARK  139  A    between atoms: _374  and  _375
REMARK  140  A    between atoms: _378  and  _380
REMARK  141  A    between atoms: _380  and  _381
REMARK  142  A    between atoms: _380  and  _383
REMARK  143  A    between atoms: _383  and  _384
REMARK  144  A    between atoms: _384  and  _385
REMARK  145  A    between atoms: _385  and  _386
REMARK  146  A    between atoms: _395  and  _397
REMARK  147  A    between atoms: _397  and  _398
REMARK  148  A    between atoms: _400  and  _402
REMARK  149  A    between atoms: _402  and  _403
REMARK  150  A    between atoms: _402  and  _405
REMARK  151  A    between atoms: _405  and  _406
REMARK                            x       y       z     vdW  Elec       q    Type
REMARK                         _______ _______ _______ _____ _____    ______ ____
ROOT
ATOM      1  O   HOH     1      37.671  58.640  11.214  0.00  0.00    +0.000 OA
ENDROOT
TORSDOF 0
REMARK  Name = ../refined-set-2016/3dx2/3dx2_pocket.pdb
REMARK  151 active torsions:
REMARK  status: ('A' for Active; 'I' for Inactive)
REMARK    1  A    between atoms: _1  and  _3
REMARK    2  A    between atoms: _14  and  _17
REMARK    3  A    between atoms: _17  and  _18
REMARK    4  A    between atoms: _25  and  _26
REMARK    5  A    between atoms: _33  and  _34
REMARK    6  A    between atoms: _39  and  _41
REMARK    7  A    between atoms: _41  and  _42
REMARK    8  A    between atoms: _44  and  _46
REMARK    9  A    between atoms: _46  and  _47
REMARK   10  A    between atoms: _46  and  _49
REMARK   11  A    between atoms: _49  and  _50
REMARK   12  A    between atoms: _60  and  _62
REMARK   13  A    between atoms: _62  and  _63
REMARK   14  A    between atoms: _62  and  _65
REMARK   15  A    between atoms: _65  and  _66
REMARK   16  A    between atoms: _69  and  _71
REMARK   17  A    between atoms: _71  and  _72
REMARK   18  A    between atoms: _71  and  _74
REMARK   19  A    between atoms: _74  and  _75
REMARK   20  A    between atoms: _80  and  _81
REMARK   21  A    between atoms: _83  and  _85
REMARK   22  A    between atoms: _85  and  _86
REMARK   23  A    between atoms: _85  and  _88
REMARK   24  A    between atoms: _88  and  _89
REMARK   25  A    between atoms: _89  and  _90
REMARK   26  A    between atoms: _93  and  _95
REMARK   27  A    between atoms: _95  and  _96
REMARK   28  A    between atoms: _95  and  _98
REMARK   29  A    between atoms: _98  and  _99
REMARK   30  A    between atoms: _99  and  _100
REMARK   31  A    between atoms: _102  and  _104
REMARK   32  A    between atoms: _104  and  _105
REMARK   33  A    between atoms: _104  and  _107
REMARK   34  A    between atoms: _107  and  _108
REMARK   35  A    between atoms: _111  and  _113
REMARK   36  A    between atoms: _113  and  _114
REMARK   37  A    between atoms: _113  and  _116
REMARK   38  A    between atoms: _116  and  _117
REMARK   39  A    between atoms: _117  and  _119
REMARK   40  A    between atoms: _119  and  ZN_409
REMARK   41  A    between atoms: _121  and  _122
REMARK   42  A    between atoms: _127  and  _129
REMARK   43  A    between atoms: _129  and  _130
REMARK   44  A    between atoms: _129  and  _132
REMARK   45  A    between atoms: _132  and  _133
REMARK   46  A    between atoms: _139  and  _141
REMARK   47  A    between atoms: _141  and  _142
REMARK   48  A    between atoms: _141  and  _144
REMARK   49  A    between atoms: _144  and  _145
REMARK   50  A    between atoms: _145  and  _146
REMARK   51  A    between atoms: _146  and  _147
REMARK   52  A    between atoms: _156  and  _158
REMARK   53  A    between atoms: _158  and  _159
REMARK   54  A    between atoms: _158  and  _161
REMARK   55  A    between atoms: _161  and  _162
REMARK   56  A    between atoms: _167  and  _168
REMARK   57  A    between atoms: _170  and  _172
REMARK   58  A    between atoms: _172  and  _173
REMARK   59  A    between atoms: _172  and  _175
REMARK   60  A    between atoms: _175  and  _176
REMARK   61  A    between atoms: _178  and  _180
REMARK   62  A    between atoms: _180  and  _181
REMARK   63  A    between atoms: _180  and  _183
REMARK   64  A    between atoms: _183  and  _184
REMARK   65  A    between atoms: _189  and  _190
REMARK   66  A    between atoms: _192  and  _194
REMARK   67  A    between atoms: _194  and  _195
REMARK   68  A    between atoms: _194  and  _197
REMARK   69  A    between atoms: _197  and  _198
REMARK   70  A    between atoms: _201  and  _203
REMARK   71  A    between atoms: _203  and  _204
REMARK   72  A    between atoms: _203  and  _206
REMARK   73  A    between atoms: _206  and  _207
REMARK   74  A    between atoms: _210  and  _212
REMARK   75  A    between atoms: _212  and  _213
REMARK   76  A    between atoms: _212  and  _215
REMARK   77  A    between atoms: _215  and  _216
REMARK   78  A    between atoms: _219  and  _221
REMARK   79  A    between atoms: _221  and  _222
REMARK   80  A    between atoms: _221  and  _224
REMARK   81  A    between atoms: _224  and  _225
REMARK   82  A    between atoms: _231  and  _233
REMARK   83  A    between atoms: _233  and  _234
REMARK   84  A    between atoms: _233  and  _236
REMARK   85  A    between atoms: _236  and  _237
REMARK   86  A    between atoms: _242  and  _243
REMARK   87  A    between atoms: _245  and  _247
REMARK   88  A    between atoms: _247  and  _248
REMARK   89  A    between atoms: _247  and  _250
REMARK   90  A    between atoms: _250  and  _251
REMARK   91  A    between atoms: _254  and  _256
REMARK   92  A    between atoms: _256  and  _257
REMARK   93  A    between atoms: _256  and  _259
REMARK   94  A    between atoms: _259  and  _260
REMARK   95  A    between atoms: _270  and  _272
REMARK   96  A    between atoms: _272  and  _273
REMARK   97  A    between atoms: _272  and  _275
REMARK   98  A    between atoms: _275  and  _276
REMARK   99  A    between atoms: _281  and  _283
REMARK  100  A    between atoms: _283  and  _284
REMARK  101  A    between atoms: _283  and  _286
REMARK  102  A    between atoms: _286  and  _287
REMARK  103  A    between atoms: _291  and  ZN_409
REMARK  104  A    between atoms: _292  and  _294
REMARK  105  A    between atoms: _294  and  _295
REMARK  106  A    between atoms: _294  and  _297
REMARK  107  A    between atoms: _297  and  _298
REMARK  108  A    between atoms: _301  and  _303
REMARK  109  A    between atoms: _303  and  _304
REMARK  110  A    between atoms: _306  and  _308
REMARK  111  A    between atoms: _308  and  _309
REMARK  112  A    between atoms: _308  and  _311
REMARK  113  A    between atoms: _311  and  _312
REMARK  114  A    between atoms: _315  and  _317
REMARK  115  A    between atoms: _317  and  _318
REMARK  116  A    between atoms: _317  and  _320
REMARK  117  A    between atoms: _320  and  _321
REMARK  118  A    between atoms: _324  and  _326
REMARK  119  A    between atoms: _326  and  _327
REMARK  120  A    between atoms: _330  and  _332
REMARK  121  A    between atoms: _332  and  _333
REMARK  122  A    between atoms: _336  and  _338
REMARK  123  A    between atoms: _338  and  _339
REMARK  124  A    between atoms: _338  and  _341
REMARK  125  A    between atoms: _341  and  _342
REMARK  126  A    between atoms: _347  and  _348
REMARK  127  A    between atoms: _350  and  _352
REMARK  128  A    between atoms: _352  and  _353
REMARK  129  A    between atoms: _352  and  _355
REMARK  130  A    between atoms: _355  and  _356
REMARK  131  A    between atoms: _359  and  _361
REMARK  132  A    between atoms: _361  and  _362
REMARK  133  A    between atoms: _361  and  _364
REMARK  134  A    between atoms: _364  and  _365
REMARK  135  A    between atoms: _368  and  _370
REMARK  136  A    between atoms: _370  and  _371
REMARK  137  A    between atoms: _370  and  _373
REMARK  138  A    between atoms: _373  and  _374
REMARK  139  A    between atoms: _374  and  _375
REMARK  140  A    between atoms: _378  and  _380
REMARK  141  A    between atoms: _380  and  _381
REMARK  142  A    between atoms: _380  and  _383
REMARK  143  A    between atoms: _383  and  _384
REMARK  144  A    between atoms: _384  and  _385
REMARK  145  A    between atoms: _385  and  _386
REMARK  146  A    between atoms: _395  and  _397
REMARK  147  A    between atoms: _397  and  _398
REMARK  148  A    between atoms: _400  and  _402
REMARK  149  A    between atoms: _402  and  _403
REMARK  150  A    between atoms: _402  and  _405
REMARK  151  A    between atoms: _405  and  _406
REMARK                            x       y       z     vdW  Elec       q    Type
REMARK                         _______ _______ _______ _____ _____    ______ ____
ROOT
ATOM      1  O   HOH     1      38.636  62.005   8.556  0.00  0.00    +0.000 OA
ENDROOT
TORSDOF 0
REMARK  Name = ../refined-set-2016/3dx2/3dx2_pocket.pdb
REMARK  151 active torsions:
REMARK  status: ('A' for Active; 'I' for Inactive)
REMARK    1  A    between atoms: _1  and  _3
REMARK    2  A    between atoms: _14  and  _17
REMARK    3  A    between atoms: _17  and  _18
REMARK    4  A    between atoms: _25  and  _26
REMARK    5  A    between atoms: _33  and  _34
REMARK    6  A    between atoms: _39  and  _41
REMARK    7  A    between atoms: _41  and  _42
REMARK    8  A    between atoms: _44  and  _46
REMARK    9  A    between atoms: _46  and  _47
REMARK   10  A    between atoms: _46  and  _49
REMARK   11  A    between atoms: _49  and  _50
REMARK   12  A    between atoms: _60  and  _62
REMARK   13  A    between atoms: _62  and  _63
REMARK   14  A    between atoms: _62  and  _65
REMARK   15  A    between atoms: _65  and  _66
REMARK   16  A    between atoms: _69  and  _71
REMARK   17  A    between atoms: _71  and  _72
REMARK   18  A    between atoms: _71  and  _74
REMARK   19  A    between atoms: _74  and  _75
REMARK   20  A    between atoms: _80  and  _81
REMARK   21  A    between atoms: _83  and  _85
REMARK   22  A    between atoms: _85  and  _86
REMARK   23  A    between atoms: _85  and  _88
REMARK   24  A    between atoms: _88  and  _89
REMARK   25  A    between atoms: _89  and  _90
REMARK   26  A    between atoms: _93  and  _95
REMARK   27  A    between atoms: _95  and  _96
REMARK   28  A    between atoms: _95  and  _98
REMARK   29  A    between atoms: _98  and  _99
REMARK   30  A    between atoms: _99  and  _100
REMARK   31  A    between atoms: _102  and  _104
REMARK   32  A    between atoms: _104  and  _105
REMARK   33  A    between atoms: _104  and  _107
REMARK   34  A    between atoms: _107  and  _108
REMARK   35  A    between atoms: _111  and  _113
REMARK   36  A    between atoms: _113  and  _114
REMARK   37  A    between atoms: _113  and  _116
REMARK   38  A    between atoms: _116  and  _117
REMARK   39  A    between atoms: _117  and  _119
REMARK   40  A    between atoms: _119  and  ZN_409
REMARK   41  A    between atoms: _121  and  _122
REMARK   42  A    between atoms: _127  and  _129
REMARK   43  A    between atoms: _129  and  _130
REMARK   44  A    between atoms: _129  and  _132
REMARK   45  A    between atoms: _132  and  _133
REMARK   46  A    between atoms: _139  and  _141
REMARK   47  A    between atoms: _141  and  _142
REMARK   48  A    between atoms: _141  and  _144
REMARK   49  A    between atoms: _144  and  _145
REMARK   50  A    between atoms: _145  and  _146
REMARK   51  A    between atoms: _146  and  _147
REMARK   52  A    between atoms: _156  and  _158
REMARK   53  A    between atoms: _158  and  _159
REMARK   54  A    between atoms: _158  and  _161
REMARK   55  A    between atoms: _161  and  _162
REMARK   56  A    between atoms: _167  and  _168
REMARK   57  A    between atoms: _170  and  _172
REMARK   58  A    between atoms: _172  and  _173
REMARK   59  A    between atoms: _172  and  _175
REMARK   60  A    between atoms: _175  and  _176
REMARK   61  A    between atoms: _178  and  _180
REMARK   62  A    between atoms: _180  and  _181
REMARK   63  A    between atoms: _180  and  _183
REMARK   64  A    between atoms: _183  and  _184
REMARK   65  A    between atoms: _189  and  _190
REMARK   66  A    between atoms: _192  and  _194
REMARK   67  A    between atoms: _194  and  _195
REMARK   68  A    between atoms: _194  and  _197
REMARK   69  A    between atoms: _197  and  _198
REMARK   70  A    between atoms: _201  and  _203
REMARK   71  A    between atoms: _203  and  _204
REMARK   72  A    between atoms: _203  and  _206
REMARK   73  A    between atoms: _206  and  _207
REMARK   74  A    between atoms: _210  and  _212
REMARK   75  A    between atoms: _212  and  _213
REMARK   76  A    between atoms: _212  and  _215
REMARK   77  A    between atoms: _215  and  _216
REMARK   78  A    between atoms: _219  and  _221
REMARK   79  A    between atoms: _221  and  _222
REMARK   80  A    between atoms: _221  and  _224
REMARK   81  A    between atoms: _224  and  _225
REMARK   82  A    between atoms: _231  and  _233
REMARK   83  A    between atoms: _233  and  _234
REMARK   84  A    between atoms: _233  and  _236
REMARK   85  A    between atoms: _236  and  _237
REMARK   86  A    between atoms: _242  and  _243
REMARK   87  A    between atoms: _245  and  _247
REMARK   88  A    between atoms: _247  and  _248
REMARK   89  A    between atoms: _247  and  _250
REMARK   90  A    between atoms: _250  and  _251
REMARK   91  A    between atoms: _254  and  _256
REMARK   92  A    between atoms: _256  and  _257
REMARK   93  A    between atoms: _256  and  _259
REMARK   94  A    between atoms: _259  and  _260
REMARK   95  A    between atoms: _270  and  _272
REMARK   96  A    between atoms: _272  and  _273
REMARK   97  A    between atoms: _272  and  _275
REMARK   98  A    between atoms: _275  and  _276
REMARK   99  A    between atoms: _281  and  _283
REMARK  100  A    between atoms: _283  and  _284
REMARK  101  A    between atoms: _283  and  _286
REMARK  102  A    between atoms: _286  and  _287
REMARK  103  A    between atoms: _291  and  ZN_409
REMARK  104  A    between atoms: _292  and  _294
REMARK  105  A    between atoms: _294  and  _295
REMARK  106  A    between atoms: _294  and  _297
REMARK  107  A    between atoms: _297  and  _298
REMARK  108  A    between atoms: _301  and  _303
REMARK  109  A    between atoms: _303  and  _304
REMARK  110  A    between atoms: _306  and  _308
REMARK  111  A    between atoms: _308  and  _309
REMARK  112  A    between atoms: _308  and  _311
REMARK  113  A    between atoms: _311  and  _312
REMARK  114  A    between atoms: _315  and  _317
REMARK  115  A    between atoms: _317  and  _318
REMARK  116  A    between atoms: _317  and  _320
REMARK  117  A    between atoms: _320  and  _321
REMARK  118  A    between atoms: _324  and  _326
REMARK  119  A    between atoms: _326  and  _327
REMARK  120  A    between atoms: _330  and  _332
REMARK  121  A    between atoms: _332  and  _333
REMARK  122  A    between atoms: _336  and  _338
REMARK  123  A    between atoms: _338  and  _339
REMARK  124  A    between atoms: _338  and  _341
REMARK  125  A    between atoms: _341  and  _342
REMARK  126  A    between atoms: _347  and  _348
REMARK  127  A    between atoms: _350  and  _352
REMARK  128  A    between atoms: _352  and  _353
REMARK  129  A    between atoms: _352  and  _355
REMARK  130  A    between atoms: _355  and  _356
REMARK  131  A    between atoms: _359  and  _361
REMARK  132  A    between atoms: _361  and  _362
REMARK  133  A    between atoms: _361  and  _364
REMARK  134  A    between atoms: _364  and  _365
REMARK  135  A    between atoms: _368  and  _370
REMARK  136  A    between atoms: _370  and  _371
REMARK  137  A    between atoms: _370  and  _373
REMARK  138  A    between atoms: _373  and  _374
REMARK  139  A    between atoms: _374  and  _375
REMARK  140  A    between atoms: _378  and  _380
REMARK  141  A    between atoms: _380  and  _381
REMARK  142  A    between atoms: _380  and  _383
REMARK  143  A    between atoms: _383  and  _384
REMARK  144  A    between atoms: _384  and  _385
REMARK  145  A    between atoms: _385  and  _386
REMARK  146  A    between atoms: _395  and  _397
REMARK  147  A    between atoms: _397  and  _398
REMARK  148  A    between atoms: _400  and  _402
REMARK  149  A    between atoms: _402  and  _403
REMARK  150  A    between atoms: _402  and  _405
REMARK  151  A    between atoms: _405  and  _406
REMARK                            x       y       z     vdW  Elec       q    Type
REMARK                         _______ _______ _______ _____ _____    ______ ____
ROOT
ATOM      1  O   HOH     1      40.177  62.452   6.289  0.00  0.00    +0.000 OA
ENDROOT
TORSDOF 0
