REMARK  Name = ../refined-set-2016/3cow/3cow_pocket.pdb
REMARK  226 active torsions:
REMARK  status: ('A' for Active; 'I' for Inactive)
REMARK    1  A    between atoms: _1  and  _3
REMARK    2  A    between atoms: _3  and  _4
REMARK    3  A    between atoms: _3  and  _6
REMARK    4  A    between atoms: _10  and  _11
REMARK    5  A    between atoms: _16  and  _18
REMARK    6  A    between atoms: _18  and  _19
REMARK    7  A    between atoms: _18  and  _21
REMARK    8  A    between atoms: _21  and  _22
REMARK    9  A    between atoms: _25  and  _27
REMARK   10  A    between atoms: _27  and  _28
REMARK   11  A    between atoms: _27  and  _30
REMARK   12  A    between atoms: _30  and  _31
REMARK   13  A    between atoms: _31  and  _32
REMARK   14  A    between atoms: _34  and  _36
REMARK   15  A    between atoms: _36  and  _37
REMARK   16  A    between atoms: _39  and  _41
REMARK   17  A    between atoms: _41  and  _42
REMARK   18  A    between atoms: _45  and  _47
REMARK   19  A    between atoms: _47  and  _48
REMARK   20  A    between atoms: _47  and  _50
REMARK   21  A    between atoms: _50  and  _51
REMARK   22  A    between atoms: _54  and  _56
REMARK   23  A    between atoms: _56  and  _57
REMARK   24  A    between atoms: _56  and  _59
REMARK   25  A    between atoms: _59  and  _60
REMARK   26  A    between atoms: _65  and  _67
REMARK   27  A    between atoms: _67  and  _68
REMARK   28  A    between atoms: _67  and  _70
REMARK   29  A    between atoms: _70  and  _71
REMARK   30  A    between atoms: _71  and  _72
REMARK   31  A    between atoms: _75  and  _77
REMARK   32  A    between atoms: _77  and  _78
REMARK   33  A    between atoms: _80  and  _82
REMARK   34  A    between atoms: _82  and  _83
REMARK   35  A    between atoms: _82  and  _85
REMARK   36  A    between atoms: _85  and  _86
REMARK   37  A    between atoms: _91  and  _93
REMARK   38  A    between atoms: _93  and  _94
REMARK   39  A    between atoms: _93  and  _96
REMARK   40  A    between atoms: _96  and  _97
REMARK   41  A    between atoms: _100  and  _102
REMARK   42  A    between atoms: _102  and  _103
REMARK   43  A    between atoms: _106  and  _108
REMARK   44  A    between atoms: _108  and  _109
REMARK   45  A    between atoms: _108  and  _111
REMARK   46  A    between atoms: _111  and  _112
REMARK   47  A    between atoms: _115  and  _117
REMARK   48  A    between atoms: _117  and  _118
REMARK   49  A    between atoms: _117  and  _120
REMARK   50  A    between atoms: _123  and  _125
REMARK   51  A    between atoms: _125  and  _126
REMARK   52  A    between atoms: _125  and  _128
REMARK   53  A    between atoms: _128  and  _129
REMARK   54  A    between atoms: _131  and  _133
REMARK   55  A    between atoms: _133  and  _134
REMARK   56  A    between atoms: _133  and  _136
REMARK   57  A    between atoms: _136  and  _137
REMARK   58  A    between atoms: _140  and  _142
REMARK   59  A    between atoms: _142  and  _143
REMARK   60  A    between atoms: _142  and  _145
REMARK   61  A    between atoms: _145  and  _146
REMARK   62  A    between atoms: _152  and  _154
REMARK   63  A    between atoms: _154  and  _155
REMARK   64  A    between atoms: _154  and  _157
REMARK   65  A    between atoms: _160  and  _162
REMARK   66  A    between atoms: _162  and  _163
REMARK   67  A    between atoms: _162  and  _165
REMARK   68  A    between atoms: _165  and  _166
REMARK   69  A    between atoms: _171  and  _173
REMARK   70  A    between atoms: _173  and  _174
REMARK   71  A    between atoms: _173  and  _176
REMARK   72  A    between atoms: _176  and  _177
REMARK   73  A    between atoms: _177  and  _178
REMARK   74  A    between atoms: _183  and  _185
REMARK   75  A    between atoms: _185  and  _186
REMARK   76  A    between atoms: _185  and  _188
REMARK   77  A    between atoms: _188  and  _189
REMARK   78  A    between atoms: _195  and  _197
REMARK   79  A    between atoms: _197  and  _198
REMARK   80  A    between atoms: _197  and  _200
REMARK   81  A    between atoms: _200  and  _201
REMARK   82  A    between atoms: _206  and  _207
REMARK   83  A    between atoms: _209  and  _211
REMARK   84  A    between atoms: _211  and  _212
REMARK   85  A    between atoms: _211  and  _214
REMARK   86  A    between atoms: _214  and  _215
REMARK   87  A    between atoms: _220  and  _221
REMARK   88  A    between atoms: _223  and  _225
REMARK   89  A    between atoms: _225  and  _226
REMARK   90  A    between atoms: _225  and  _228
REMARK   91  A    between atoms: _228  and  _229
REMARK   92  A    between atoms: _234  and  _236
REMARK   93  A    between atoms: _236  and  _237
REMARK   94  A    between atoms: _236  and  _239
REMARK   95  A    between atoms: _239  and  _240
REMARK   96  A    between atoms: _246  and  _248
REMARK   97  A    between atoms: _248  and  _249
REMARK   98  A    between atoms: _251  and  _253
REMARK   99  A    between atoms: _253  and  _254
REMARK  100  A    between atoms: _253  and  _256
REMARK  101  A    between atoms: _259  and  _261
REMARK  102  A    between atoms: _261  and  _262
REMARK  103  A    between atoms: _261  and  _264
REMARK  104  A    between atoms: _264  and  _265
REMARK  105  A    between atoms: _268  and  _270
REMARK  106  A    between atoms: _270  and  _271
REMARK  107  A    between atoms: _270  and  _273
REMARK  108  A    between atoms: _273  and  _274
REMARK  109  A    between atoms: _277  and  _279
REMARK  110  A    between atoms: _279  and  _280
REMARK  111  A    between atoms: _279  and  _282
REMARK  112  A    between atoms: _285  and  _287
REMARK  113  A    between atoms: _287  and  _288
REMARK  114  A    between atoms: _287  and  _290
REMARK  115  A    between atoms: _293  and  _295
REMARK  116  A    between atoms: _295  and  _296
REMARK  117  A    between atoms: _295  and  _298
REMARK  118  A    between atoms: _298  and  _299
REMARK  119  A    between atoms: _302  and  _304
REMARK  120  A    between atoms: _304  and  _305
REMARK  121  A    between atoms: _304  and  _307
REMARK  122  A    between atoms: _307  and  _308
REMARK  123  A    between atoms: _311  and  _313
REMARK  124  A    between atoms: _313  and  _314
REMARK  125  A    between atoms: _313  and  _316
REMARK  126  A    between atoms: _316  and  _317
REMARK  127  A    between atoms: _323  and  _325
REMARK  128  A    between atoms: _325  and  _326
REMARK  129  A    between atoms: _325  and  _328
REMARK  130  A    between atoms: _328  and  _329
REMARK  131  A    between atoms: _335  and  _337
REMARK  132  A    between atoms: _337  and  _338
REMARK  133  A    between atoms: _340  and  _342
REMARK  134  A    between atoms: _342  and  _343
REMARK  135  A    between atoms: _342  and  _345
REMARK  136  A    between atoms: _345  and  _346
REMARK  137  A    between atoms: _346  and  _347
REMARK  138  A    between atoms: _350  and  _352
REMARK  139  A    between atoms: _352  and  _353
REMARK  140  A    between atoms: _352  and  _355
REMARK  141  A    between atoms: _355  and  _356
REMARK  142  A    between atoms: _356  and  _357
REMARK  143  A    between atoms: _357  and  _358
REMARK  144  A    between atoms: _358  and  _359
REMARK  145  A    between atoms: _363  and  _365
REMARK  146  A    between atoms: _365  and  _366
REMARK  147  A    between atoms: _365  and  _368
REMARK  148  A    between atoms: _368  and  _369
REMARK  149  A    between atoms: _372  and  _374
REMARK  150  A    between atoms: _374  and  _375
REMARK  151  A    between atoms: _374  and  _377
REMARK  152  A    between atoms: _377  and  _378
REMARK  153  A    between atoms: _383  and  _384
REMARK  154  A    between atoms: _386  and  _388
REMARK  155  A    between atoms: _388  and  _389
REMARK  156  A    between atoms: _388  and  _391
REMARK  157  A    between atoms: _391  and  _392
REMARK  158  A    between atoms: _392  and  _393
REMARK  159  A    between atoms: _398  and  _400
REMARK  160  A    between atoms: _400  and  _401
REMARK  161  A    between atoms: _400  and  _403
REMARK  162  A    between atoms: _403  and  _404
REMARK  163  A    between atoms: _407  and  _409
REMARK  164  A    between atoms: _409  and  _410
REMARK  165  A    between atoms: _409  and  _412
REMARK  166  A    between atoms: _412  and  _413
REMARK  167  A    between atoms: _416  and  _418
REMARK  168  A    between atoms: _418  and  _419
REMARK  169  A    between atoms: _418  and  _421
REMARK  170  A    between atoms: _424  and  _426
REMARK  171  A    between atoms: _426  and  _427
REMARK  172  A    between atoms: _429  and  _431
REMARK  173  A    between atoms: _431  and  _432
REMARK  174  A    between atoms: _431  and  _434
REMARK  175  A    between atoms: _438  and  _439
REMARK  176  A    between atoms: _444  and  _446
REMARK  177  A    between atoms: _446  and  _447
REMARK  178  A    between atoms: _446  and  _449
REMARK  179  A    between atoms: _449  and  _450
REMARK  180  A    between atoms: _453  and  _455
REMARK  181  A    between atoms: _455  and  _456
REMARK  182  A    between atoms: _455  and  _458
REMARK  183  A    between atoms: _461  and  _463
REMARK  184  A    between atoms: _463  and  _464
REMARK  185  A    between atoms: _463  and  _466
REMARK  186  A    between atoms: _466  and  _467
REMARK  187  A    between atoms: _467  and  _468
REMARK  188  A    between atoms: _468  and  _469
REMARK  189  A    between atoms: _478  and  _480
REMARK  190  A    between atoms: _480  and  _481
REMARK  191  A    between atoms: _480  and  _483
REMARK  192  A    between atoms: _483  and  _484
REMARK  193  A    between atoms: _484  and  _485
REMARK  194  A    between atoms: _488  and  _490
REMARK  195  A    between atoms: _490  and  _491
REMARK  196  A    between atoms: _490  and  _493
REMARK  197  A    between atoms: _493  and  _494
REMARK  198  A    between atoms: _497  and  _499
REMARK  199  A    between atoms: _499  and  _500
REMARK  200  A    between atoms: _503  and  _505
REMARK  201  A    between atoms: _505  and  _506
REMARK  202  A    between atoms: _505  and  _508
REMARK  203  A    between atoms: _508  and  _509
REMARK  204  A    between atoms: _509  and  _510
REMARK  205  A    between atoms: _512  and  _514
REMARK  206  A    between atoms: _514  and  _515
REMARK  207  A    between atoms: _514  and  _517
REMARK  208  A    between atoms: _517  and  _518
REMARK  209  A    between atoms: _520  and  _522
REMARK  210  A    between atoms: _522  and  _523
REMARK  211  A    between atoms: _522  and  _525
REMARK  212  A    between atoms: _525  and  _526
REMARK  213  A    between atoms: _528  and  _530
REMARK  214  A    between atoms: _530  and  _531
REMARK  215  A    between atoms: _530  and  _533
REMARK  216  A    between atoms: _533  and  _534
REMARK  217  A    between atoms: _534  and  _535
REMARK  218  A    between atoms: _535  and  _536
REMARK  219  A    between atoms: _545  and  _547
REMARK  220  A    between atoms: _547  and  _548
REMARK  221  A    between atoms: _547  and  _550
REMARK  222  A    between atoms: _550  and  _551
REMARK  223  A    between atoms: _556  and  _558
REMARK  224  A    between atoms: _558  and  _559
REMARK  225  A    between atoms: _558  and  _561
REMARK  226  A    between atoms: _561  and  _562
REMARK                            x       y       z     vdW  Elec       q    Type
REMARK                         _______ _______ _______ _____ _____    ______ ____
ROOT
ATOM      1  CA  HIS A   8      15.138  18.180  -3.626  0.00  0.00    +0.155 C 
ENDROOT
BRANCH   1   4
ATOM      2  C   LEU A   7      15.153  19.125  -1.380  0.00  0.00    +0.241 C 
ATOM      3  O   LEU A   7      15.541  20.237  -1.762  0.00  0.00    -0.273 OA
ATOM      4  N   HIS A   8      15.009  18.080  -2.181  0.00  0.00    -0.297 N 
ATOM      5  H   HIS A   8      14.796  17.153  -1.761  0.00  0.00    +0.150 HD
BRANCH   2   6
ATOM      6  CA  LEU A   7      14.841  18.877   0.078  0.00  0.00    +0.149 C 
BRANCH   6   8
ATOM      7  C   ALA A   6      17.028  18.973   1.125  0.00  0.00    +0.241 C 
ATOM      8  N   LEU A   7      15.816  19.492   0.956  0.00  0.00    -0.297 N 
ATOM      9  H   LEU A   7      15.561  20.361   1.467  0.00  0.00    +0.150 HD
ATOM     10  O   ALA A   6      17.502  18.097   0.366  0.00  0.00    -0.273 OA
BRANCH   7  11
ATOM     11  CA  ALA A   6      17.813  19.535   2.313  0.00  0.00    +0.149 C 
ATOM     12  CB  ALA A   6      19.155  18.777   2.502  0.00  0.00    +0.031 C 
BRANCH  11  14
ATOM     13  C   GLY A   5      16.485  18.203   3.846  0.00  0.00    +0.243 C 
ATOM     14  N   ALA A   6      16.969  19.398   3.492  0.00  0.00    -0.297 N 
ATOM     15  H   ALA A   6      16.741  20.237   4.063  0.00  0.00    +0.150 HD
ATOM     16  O   GLY A   5      16.801  17.139   3.263  0.00  0.00    -0.273 OA
BRANCH  13  17
ATOM     17  CA  GLY A   5      15.526  18.200   5.031  0.00  0.00    +0.176 C 
BRANCH  17  20
ATOM     18  C   MET A   4      16.384  16.331   6.364  0.00  0.00    +0.241 C 
ATOM     19  O   MET A   4      17.485  16.874   6.506  0.00  0.00    -0.273 OA
ATOM     20  N   GLY A   5      15.406  16.866   5.654  0.00  0.00    -0.295 N 
ATOM     21  H   GLY A   5      14.523  16.330   5.530  0.00  0.00    +0.150 HD
BRANCH  18  22
ATOM     22  CA  MET A   4      16.072  14.975   7.014  0.00  0.00    +0.149 C 
BRANCH  22  25
ATOM     23  C   THR A   3      13.792  14.106   6.732  0.00  0.00    +0.243 C 
ATOM     24  O   THR A   3      13.462  14.361   7.903  0.00  0.00    -0.273 OA
ATOM     25  N   MET A   4      15.029  14.288   6.252  0.00  0.00    -0.297 N 
ATOM     26  H   MET A   4      15.256  13.928   5.303  0.00  0.00    +0.150 HD
BRANCH  23  27
ATOM     27  CA  THR A   3      12.765  13.569   5.724  0.00  0.00    +0.176 C 
BRANCH  27  29
ATOM     28  C   PRO A   2      10.896  12.015   6.010  0.00  0.00    +0.241 C 
ATOM     29  N   THR A   3      11.534  13.120   6.404  0.00  0.00    -0.295 N 
ATOM     30  H   THR A   3      11.158  13.672   7.201  0.00  0.00    +0.150 HD
ATOM     31  O   PRO A   2      11.215  11.353   5.006  0.00  0.00    -0.273 OA
BRANCH  28  34
ATOM     32  C   VAL A   1       7.818  12.375   5.509  0.00  0.00    +0.241 C 
ATOM     33  N   PRO A   2       8.482  11.347   6.049  0.00  0.00    -0.272 N 
ATOM     34  CA  PRO A   2       9.691  11.595   6.849  0.00  0.00    +0.152 C 
ATOM     35  CB  PRO A   2       9.935  10.228   7.522  0.00  0.00    +0.031 C 
ATOM     36  CG  PRO A   2       8.585   9.551   7.475  0.00  0.00    +0.024 C 
ATOM     37  CD  PRO A   2       8.112   9.926   6.084  0.00  0.00    +0.094 C 
ATOM     38  O   VAL A   1       8.145  13.540   5.735  0.00  0.00    -0.273 OA
BRANCH  32  39
ATOM     39  CA  VAL A   1       6.572  12.053   4.646  0.00  0.00    +0.145 C 
BRANCH  39  40
ATOM     40  CB  VAL A   1       6.493  13.041   3.421  0.00  0.00    +0.025 C 
ATOM     41  CG2 VAL A   1       7.778  12.929   2.585  0.00  0.00    +0.002 C 
ATOM     42  CG1 VAL A   1       5.247  12.696   2.546  0.00  0.00    +0.002 C 
ENDBRANCH  39  40
BRANCH  39  43
ATOM     43  N   VAL A   1       5.394  12.183   5.501  0.00  0.00    -0.238 NA
ATOM     44  H   VAL A   1       5.201  13.095   5.962  0.00  0.00    +0.142 HD
ENDBRANCH  39  43
ENDBRANCH  32  39
ENDBRANCH  28  34
ENDBRANCH  27  29
BRANCH  27  45
ATOM     45  CB  THR A   3      12.452  14.720   4.689  0.00  0.00    +0.137 C 
ATOM     46  CG2 THR A   3      11.098  14.497   3.975  0.00  0.00    +0.034 C 
BRANCH  45  47
ATOM     47  OG1 THR A   3      12.410  15.958   5.385  0.00  0.00    -0.382 OA
ATOM     48  HG1 THR A   3      11.701  15.923   6.075  0.00  0.00    +0.210 HD
ENDBRANCH  45  47
ENDBRANCH  27  45
ENDBRANCH  23  27
ENDBRANCH  22  25
BRANCH  22  49
ATOM     49  CB  MET A   4      17.317  14.085   7.113  0.00  0.00    +0.041 C 
BRANCH  49  50
ATOM     50  CG  MET A   4      16.990  12.804   7.879  0.00  0.00    +0.060 C 
BRANCH  50  51
ATOM     51  SD  MET A   4      18.354  11.942   8.689  0.00  0.00    -0.139 S 
ATOM     52  CE  MET A   4      19.440  11.583   7.339  0.00  0.00    +0.069 C 
ENDBRANCH  50  51
ENDBRANCH  49  50
ENDBRANCH  22  49
ENDBRANCH  18  22
ENDBRANCH  17  20
ENDBRANCH  13  17
ENDBRANCH  11  14
ENDBRANCH   7  11
ENDBRANCH   6   8
BRANCH   6  53
ATOM     53  CB  LEU A   7      13.455  19.414   0.389  0.00  0.00    +0.029 C 
BRANCH  53  54
ATOM     54  CG  LEU A   7      12.903  19.218   1.808  0.00  0.00    +0.002 C 
ATOM     55  CD2 LEU A   7      12.887  17.702   2.189  0.00  0.00    +0.000 C 
ATOM     56  CD1 LEU A   7      11.527  19.802   1.878  0.00  0.00    +0.000 C 
ENDBRANCH  53  54
ENDBRANCH   6  53
ENDBRANCH   2   6
ENDBRANCH   1   4
BRANCH   1  57
ATOM     57  C   HIS A   8      13.953  17.452  -4.289  0.00  0.00    +0.241 C 
ATOM     58  O   HIS A   8      13.066  16.948  -3.609  0.00  0.00    -0.273 OA
ATOM     59  N   GLU A   9      13.934  17.389  -5.620  0.00  0.00    -0.297 N 
ATOM     60  H   GLU A   9      14.754  17.734  -6.159  0.00  0.00    +0.150 HD
BRANCH  59  61
ATOM     61  CA  GLU A   9      12.765  16.835  -6.347  0.00  0.00    +0.149 C 
BRANCH  61  62
ATOM     62  C   GLU A   9      12.427  15.376  -5.966  0.00  0.00    +0.241 C 
ATOM     63  N   GLY A  10      13.441  14.635  -5.521  0.00  0.00    -0.295 N 
ATOM     64  H   GLY A  10      14.401  15.035  -5.501  0.00  0.00    +0.150 HD
ATOM     65  O   GLU A   9      11.280  14.915  -6.122  0.00  0.00    -0.273 OA
BRANCH  63  66
ATOM     66  CA  GLY A  10      13.215  13.251  -5.056  0.00  0.00    +0.176 C 
BRANCH  66  67
ATOM     67  C   GLY A  10      12.278  13.215  -3.840  0.00  0.00    +0.243 C 
ATOM     68  N   HIS A  11      12.549  14.077  -2.855  0.00  0.00    -0.297 N 
ATOM     69  H   HIS A  11      13.408  14.659  -2.928  0.00  0.00    +0.150 HD
ATOM     70  O   GLY A  10      11.311  12.443  -3.811  0.00  0.00    -0.273 OA
BRANCH  68  71
ATOM     71  CA  HIS A  11      11.687  14.241  -1.669  0.00  0.00    +0.155 C 
BRANCH  71  72
ATOM     72  C   HIS A  11      10.320  14.722  -2.136  0.00  0.00    +0.241 C 
ATOM     73  O   HIS A  11       9.286  14.301  -1.602  0.00  0.00    -0.273 OA
ATOM     74  N   LEU A  12      10.318  15.624  -3.119  0.00  0.00    -0.297 N 
ATOM     75  H   LEU A  12      11.208  15.896  -3.582  0.00  0.00    +0.150 HD
BRANCH  74  76
ATOM     76  CA  LEU A  12       9.048  16.230  -3.542  0.00  0.00    +0.149 C 
BRANCH  76  77
ATOM     77  C   LEU A  12       8.147  15.215  -4.259  0.00  0.00    +0.241 C 
ATOM     78  O   LEU A  12       6.933  15.367  -4.250  0.00  0.00    -0.273 OA
ATOM     79  N   ALA A  13       8.741  14.172  -4.837  0.00  0.00    -0.297 N 
ATOM     80  H   ALA A  13       9.779  14.143  -4.887  0.00  0.00    +0.150 HD
BRANCH  79  81
ATOM     81  CA  ALA A  13       7.972  13.072  -5.401  0.00  0.00    +0.149 C 
ATOM     82  CB  ALA A  13       8.874  12.058  -6.085  0.00  0.00    +0.031 C 
BRANCH  81  83
ATOM     83  C   ALA A  13       7.143  12.402  -4.303  0.00  0.00    +0.241 C 
ATOM     84  N   LEU A  14       7.728  12.226  -3.118  0.00  0.00    -0.297 N 
ATOM     85  H   LEU A  14       8.712  12.532  -2.977  0.00  0.00    +0.150 HD
ATOM     86  O   ALA A  13       5.989  12.054  -4.526  0.00  0.00    -0.273 OA
BRANCH  84  87
ATOM     87  CA  LEU A  14       6.990  11.600  -2.005  0.00  0.00    +0.149 C 
BRANCH  87  88
ATOM     88  C   LEU A  14       5.870  12.550  -1.572  0.00  0.00    +0.241 C 
ATOM     89  O   LEU A  14       4.766  12.104  -1.263  0.00  0.00    -0.273 OA
ATOM     90  N   VAL A  15       6.181  13.848  -1.509  0.00  0.00    -0.298 N 
ATOM     91  H   VAL A  15       7.145  14.149  -1.757  0.00  0.00    +0.150 HD
BRANCH  90  92
ATOM     92  CA  VAL A  15       5.194  14.869  -1.097  0.00  0.00    +0.137 C 
BRANCH  92  93
ATOM     93  CB  VAL A  15       5.841  16.283  -1.081  0.00  0.00    +0.026 C 
ATOM     94  CG2 VAL A  15       6.860  16.424   0.039  0.00  0.00    +0.002 C 
ATOM     95  CG1 VAL A  15       4.750  17.398  -0.984  0.00  0.00    +0.002 C 
ENDBRANCH  92  93
BRANCH  92  96
ATOM     96  C   VAL A  15       3.993  14.864  -2.048  0.00  0.00    +0.227 C 
ATOM     97  O   VAL A  15       2.819  14.870  -1.620  0.00  0.00    -0.286 OA
ENDBRANCH  92  96
ENDBRANCH  90  92
ENDBRANCH  87  88
BRANCH  87  98
ATOM     98  CB  LEU A  14       7.909  11.331  -0.791  0.00  0.00    +0.029 C 
BRANCH  98  99
ATOM     99  CG  LEU A  14       8.804  10.076  -0.764  0.00  0.00    +0.002 C 
ATOM    100  CD2 LEU A  14       9.606   9.966   0.563  0.00  0.00    +0.000 C 
ATOM    101  CD1 LEU A  14       9.739   9.983  -1.974  0.00  0.00    +0.000 C 
ENDBRANCH  98  99
ENDBRANCH  87  98
ENDBRANCH  84  87
ENDBRANCH  81  83
ENDBRANCH  79  81
ENDBRANCH  76  77
BRANCH  76 102
ATOM    102  CB  LEU A  12       9.269  17.494  -4.366  0.00  0.00    +0.029 C 
BRANCH 102 103
ATOM    103  CG  LEU A  12       9.944  18.662  -3.607  0.00  0.00    +0.002 C 
ATOM    104  CD2 LEU A  12       9.305  18.964  -2.235  0.00  0.00    +0.000 C 
ATOM    105  CD1 LEU A  12      10.000  19.926  -4.472  0.00  0.00    +0.000 C 
ENDBRANCH 102 103
ENDBRANCH  76 102
ENDBRANCH  74  76
ENDBRANCH  71  72
BRANCH  71 106
ATOM    106  CB  HIS A  11      12.274  15.274  -0.700  0.00  0.00    +0.076 C 
BRANCH 106 107
ATOM    107  CG  HIS A  11      13.630  14.917  -0.172  0.00  0.00    +0.082 A 
ATOM    108  CD2 HIS A  11      14.018  13.960   0.706  0.00  0.00    +0.115 A 
ATOM    109  NE2 HIS A  11      15.380  14.079   0.859  0.00  0.00    -0.221 NA
ATOM    110  CE1 HIS A  11      15.812  15.075   0.101  0.00  0.00    +0.199 A 
ATOM    111  ND1 HIS A  11      14.776  15.593  -0.534  0.00  0.00    -0.227 NA
ENDBRANCH 106 107
ENDBRANCH  71 106
ENDBRANCH  68  71
ENDBRANCH  66  67
ENDBRANCH  63  66
ENDBRANCH  61  62
BRANCH  61 112
ATOM    112  CB  GLU A   9      13.036  16.914  -7.852  0.00  0.00    +0.041 C 
BRANCH 112 113
ATOM    113  CG  GLU A   9      11.788  16.986  -8.694  0.00  0.00    +0.116 C 
BRANCH 113 114
ATOM    114  CD  GLU A   9      11.020  18.281  -8.499  0.00  0.00    +0.365 C 
ATOM    115  OE2 GLU A   9      11.616  19.317  -8.098  0.00  0.00    -0.246 OA
ATOM    116  OE1 GLU A   9       9.806  18.259  -8.764  0.00  0.00    -0.246 OA
ENDBRANCH 113 114
ENDBRANCH 112 113
ENDBRANCH  61 112
ENDBRANCH  59  61
ENDBRANCH   1  57
BRANCH   1 117
ATOM    117  CB  HIS A   8      16.489  17.591  -4.057  0.00  0.00    +0.076 C 
BRANCH 117 118
ATOM    118  CG  HIS A   8      16.716  16.191  -3.571  0.00  0.00    +0.082 A 
ATOM    119  CD2 HIS A   8      17.604  15.696  -2.677  0.00  0.00    +0.115 A 
ATOM    120  NE2 HIS A   8      17.388  14.343  -2.601  0.00  0.00    -0.221 NA
ATOM    121  CE1 HIS A   8      16.386  14.019  -3.403  0.00  0.00    +0.199 A 
ATOM    122  ND1 HIS A   8      15.966  15.120  -4.001  0.00  0.00    -0.227 NA
ENDBRANCH 117 118
ENDBRANCH   1 117
TORSDOF 49
REMARK  Name = ../refined-set-2016/3cow/3cow_pocket.pdb
REMARK  226 active torsions:
REMARK  status: ('A' for Active; 'I' for Inactive)
REMARK    1  A    between atoms: _1  and  _3
REMARK    2  A    between atoms: _3  and  _4
REMARK    3  A    between atoms: _3  and  _6
REMARK    4  A    between atoms: _10  and  _11
REMARK    5  A    between atoms: _16  and  _18
REMARK    6  A    between atoms: _18  and  _19
REMARK    7  A    between atoms: _18  and  _21
REMARK    8  A    between atoms: _21  and  _22
REMARK    9  A    between atoms: _25  and  _27
REMARK   10  A    between atoms: _27  and  _28
REMARK   11  A    between atoms: _27  and  _30
REMARK   12  A    between atoms: _30  and  _31
REMARK   13  A    between atoms: _31  and  _32
REMARK   14  A    between atoms: _34  and  _36
REMARK   15  A    between atoms: _36  and  _37
REMARK   16  A    between atoms: _39  and  _41
REMARK   17  A    between atoms: _41  and  _42
REMARK   18  A    between atoms: _45  and  _47
REMARK   19  A    between atoms: _47  and  _48
REMARK   20  A    between atoms: _47  and  _50
REMARK   21  A    between atoms: _50  and  _51
REMARK   22  A    between atoms: _54  and  _56
REMARK   23  A    between atoms: _56  and  _57
REMARK   24  A    between atoms: _56  and  _59
REMARK   25  A    between atoms: _59  and  _60
REMARK   26  A    between atoms: _65  and  _67
REMARK   27  A    between atoms: _67  and  _68
REMARK   28  A    between atoms: _67  and  _70
REMARK   29  A    between atoms: _70  and  _71
REMARK   30  A    between atoms: _71  and  _72
REMARK   31  A    between atoms: _75  and  _77
REMARK   32  A    between atoms: _77  and  _78
REMARK   33  A    between atoms: _80  and  _82
REMARK   34  A    between atoms: _82  and  _83
REMARK   35  A    between atoms: _82  and  _85
REMARK   36  A    between atoms: _85  and  _86
REMARK   37  A    between atoms: _91  and  _93
REMARK   38  A    between atoms: _93  and  _94
REMARK   39  A    between atoms: _93  and  _96
REMARK   40  A    between atoms: _96  and  _97
REMARK   41  A    between atoms: _100  and  _102
REMARK   42  A    between atoms: _102  and  _103
REMARK   43  A    between atoms: _106  and  _108
REMARK   44  A    between atoms: _108  and  _109
REMARK   45  A    between atoms: _108  and  _111
REMARK   46  A    between atoms: _111  and  _112
REMARK   47  A    between atoms: _115  and  _117
REMARK   48  A    between atoms: _117  and  _118
REMARK   49  A    between atoms: _117  and  _120
REMARK   50  A    between atoms: _123  and  _125
REMARK   51  A    between atoms: _125  and  _126
REMARK   52  A    between atoms: _125  and  _128
REMARK   53  A    between atoms: _128  and  _129
REMARK   54  A    between atoms: _131  and  _133
REMARK   55  A    between atoms: _133  and  _134
REMARK   56  A    between atoms: _133  and  _136
REMARK   57  A    between atoms: _136  and  _137
REMARK   58  A    between atoms: _140  and  _142
REMARK   59  A    between atoms: _142  and  _143
REMARK   60  A    between atoms: _142  and  _145
REMARK   61  A    between atoms: _145  and  _146
REMARK   62  A    between atoms: _152  and  _154
REMARK   63  A    between atoms: _154  and  _155
REMARK   64  A    between atoms: _154  and  _157
REMARK   65  A    between atoms: _160  and  _162
REMARK   66  A    between atoms: _162  and  _163
REMARK   67  A    between atoms: _162  and  _165
REMARK   68  A    between atoms: _165  and  _166
REMARK   69  A    between atoms: _171  and  _173
REMARK   70  A    between atoms: _173  and  _174
REMARK   71  A    between atoms: _173  and  _176
REMARK   72  A    between atoms: _176  and  _177
REMARK   73  A    between atoms: _177  and  _178
REMARK   74  A    between atoms: _183  and  _185
REMARK   75  A    between atoms: _185  and  _186
REMARK   76  A    between atoms: _185  and  _188
REMARK   77  A    between atoms: _188  and  _189
REMARK   78  A    between atoms: _195  and  _197
REMARK   79  A    between atoms: _197  and  _198
REMARK   80  A    between atoms: _197  and  _200
REMARK   81  A    between atoms: _200  and  _201
REMARK   82  A    between atoms: _206  and  _207
REMARK   83  A    between atoms: _209  and  _211
REMARK   84  A    between atoms: _211  and  _212
REMARK   85  A    between atoms: _211  and  _214
REMARK   86  A    between atoms: _214  and  _215
REMARK   87  A    between atoms: _220  and  _221
REMARK   88  A    between atoms: _223  and  _225
REMARK   89  A    between atoms: _225  and  _226
REMARK   90  A    between atoms: _225  and  _228
REMARK   91  A    between atoms: _228  and  _229
REMARK   92  A    between atoms: _234  and  _236
REMARK   93  A    between atoms: _236  and  _237
REMARK   94  A    between atoms: _236  and  _239
REMARK   95  A    between atoms: _239  and  _240
REMARK   96  A    between atoms: _246  and  _248
REMARK   97  A    between atoms: _248  and  _249
REMARK   98  A    between atoms: _251  and  _253
REMARK   99  A    between atoms: _253  and  _254
REMARK  100  A    between atoms: _253  and  _256
REMARK  101  A    between atoms: _259  and  _261
REMARK  102  A    between atoms: _261  and  _262
REMARK  103  A    between atoms: _261  and  _264
REMARK  104  A    between atoms: _264  and  _265
REMARK  105  A    between atoms: _268  and  _270
REMARK  106  A    between atoms: _270  and  _271
REMARK  107  A    between atoms: _270  and  _273
REMARK  108  A    between atoms: _273  and  _274
REMARK  109  A    between atoms: _277  and  _279
REMARK  110  A    between atoms: _279  and  _280
REMARK  111  A    between atoms: _279  and  _282
REMARK  112  A    between atoms: _285  and  _287
REMARK  113  A    between atoms: _287  and  _288
REMARK  114  A    between atoms: _287  and  _290
REMARK  115  A    between atoms: _293  and  _295
REMARK  116  A    between atoms: _295  and  _296
REMARK  117  A    between atoms: _295  and  _298
REMARK  118  A    between atoms: _298  and  _299
REMARK  119  A    between atoms: _302  and  _304
REMARK  120  A    between atoms: _304  and  _305
REMARK  121  A    between atoms: _304  and  _307
REMARK  122  A    between atoms: _307  and  _308
REMARK  123  A    between atoms: _311  and  _313
REMARK  124  A    between atoms: _313  and  _314
REMARK  125  A    between atoms: _313  and  _316
REMARK  126  A    between atoms: _316  and  _317
REMARK  127  A    between atoms: _323  and  _325
REMARK  128  A    between atoms: _325  and  _326
REMARK  129  A    between atoms: _325  and  _328
REMARK  130  A    between atoms: _328  and  _329
REMARK  131  A    between atoms: _335  and  _337
REMARK  132  A    between atoms: _337  and  _338
REMARK  133  A    between atoms: _340  and  _342
REMARK  134  A    between atoms: _342  and  _343
REMARK  135  A    between atoms: _342  and  _345
REMARK  136  A    between atoms: _345  and  _346
REMARK  137  A    between atoms: _346  and  _347
REMARK  138  A    between atoms: _350  and  _352
REMARK  139  A    between atoms: _352  and  _353
REMARK  140  A    between atoms: _352  and  _355
REMARK  141  A    between atoms: _355  and  _356
REMARK  142  A    between atoms: _356  and  _357
REMARK  143  A    between atoms: _357  and  _358
REMARK  144  A    between atoms: _358  and  _359
REMARK  145  A    between atoms: _363  and  _365
REMARK  146  A    between atoms: _365  and  _366
REMARK  147  A    between atoms: _365  and  _368
REMARK  148  A    between atoms: _368  and  _369
REMARK  149  A    between atoms: _372  and  _374
REMARK  150  A    between atoms: _374  and  _375
REMARK  151  A    between atoms: _374  and  _377
REMARK  152  A    between atoms: _377  and  _378
REMARK  153  A    between atoms: _383  and  _384
REMARK  154  A    between atoms: _386  and  _388
REMARK  155  A    between atoms: _388  and  _389
REMARK  156  A    between atoms: _388  and  _391
REMARK  157  A    between atoms: _391  and  _392
REMARK  158  A    between atoms: _392  and  _393
REMARK  159  A    between atoms: _398  and  _400
REMARK  160  A    between atoms: _400  and  _401
REMARK  161  A    between atoms: _400  and  _403
REMARK  162  A    between atoms: _403  and  _404
REMARK  163  A    between atoms: _407  and  _409
REMARK  164  A    between atoms: _409  and  _410
REMARK  165  A    between atoms: _409  and  _412
REMARK  166  A    between atoms: _412  and  _413
REMARK  167  A    between atoms: _416  and  _418
REMARK  168  A    between atoms: _418  and  _419
REMARK  169  A    between atoms: _418  and  _421
REMARK  170  A    between atoms: _424  and  _426
REMARK  171  A    between atoms: _426  and  _427
REMARK  172  A    between atoms: _429  and  _431
REMARK  173  A    between atoms: _431  and  _432
REMARK  174  A    between atoms: _431  and  _434
REMARK  175  A    between atoms: _438  and  _439
REMARK  176  A    between atoms: _444  and  _446
REMARK  177  A    between atoms: _446  and  _447
REMARK  178  A    between atoms: _446  and  _449
REMARK  179  A    between atoms: _449  and  _450
REMARK  180  A    between atoms: _453  and  _455
REMARK  181  A    between atoms: _455  and  _456
REMARK  182  A    between atoms: _455  and  _458
REMARK  183  A    between atoms: _461  and  _463
REMARK  184  A    between atoms: _463  and  _464
REMARK  185  A    between atoms: _463  and  _466
REMARK  186  A    between atoms: _466  and  _467
REMARK  187  A    between atoms: _467  and  _468
REMARK  188  A    between atoms: _468  and  _469
REMARK  189  A    between atoms: _478  and  _480
REMARK  190  A    between atoms: _480  and  _481
REMARK  191  A    between atoms: _480  and  _483
REMARK  192  A    between atoms: _483  and  _484
REMARK  193  A    between atoms: _484  and  _485
REMARK  194  A    between atoms: _488  and  _490
REMARK  195  A    between atoms: _490  and  _491
REMARK  196  A    between atoms: _490  and  _493
REMARK  197  A    between atoms: _493  and  _494
REMARK  198  A    between atoms: _497  and  _499
REMARK  199  A    between atoms: _499  and  _500
REMARK  200  A    between atoms: _503  and  _505
REMARK  201  A    between atoms: _505  and  _506
REMARK  202  A    between atoms: _505  and  _508
REMARK  203  A    between atoms: _508  and  _509
REMARK  204  A    between atoms: _509  and  _510
REMARK  205  A    between atoms: _512  and  _514
REMARK  206  A    between atoms: _514  and  _515
REMARK  207  A    between atoms: _514  and  _517
REMARK  208  A    between atoms: _517  and  _518
REMARK  209  A    between atoms: _520  and  _522
REMARK  210  A    between atoms: _522  and  _523
REMARK  211  A    between atoms: _522  and  _525
REMARK  212  A    between atoms: _525  and  _526
REMARK  213  A    between atoms: _528  and  _530
REMARK  214  A    between atoms: _530  and  _531
REMARK  215  A    between atoms: _530  and  _533
REMARK  216  A    between atoms: _533  and  _534
REMARK  217  A    between atoms: _534  and  _535
REMARK  218  A    between atoms: _535  and  _536
REMARK  219  A    between atoms: _545  and  _547
REMARK  220  A    between atoms: _547  and  _548
REMARK  221  A    between atoms: _547  and  _550
REMARK  222  A    between atoms: _550  and  _551
REMARK  223  A    between atoms: _556  and  _558
REMARK  224  A    between atoms: _558  and  _559
REMARK  225  A    between atoms: _558  and  _561
REMARK  226  A    between atoms: _561  and  _562
REMARK                            x       y       z     vdW  Elec       q    Type
REMARK                         _______ _______ _______ _____ _____    ______ ____
ROOT
ATOM      1  CA  PHE A   3      14.687  16.095  11.508  0.00  0.00    +0.153 C 
ENDROOT
BRANCH   1   4
ATOM      2  C   ILE A   2      13.040  17.363  10.203  0.00  0.00    +0.241 C 
ATOM      3  O   ILE A   2      12.842  18.178  11.121  0.00  0.00    -0.273 OA
ATOM      4  N   PHE A   3      13.943  16.402  10.270  0.00  0.00    -0.297 N 
ATOM      5  H   PHE A   3      14.138  15.839   9.417  0.00  0.00    +0.150 HD
BRANCH   2   6
ATOM      6  CA  ILE A   2      12.258  17.452   8.895  0.00  0.00    +0.148 C 
BRANCH   6   8
ATOM      7  C   SER A   1      10.220  16.174   8.537  0.00  0.00    +0.241 C 
ATOM      8  N   ILE A   2      10.881  17.113   9.196  0.00  0.00    -0.297 N 
ATOM      9  H   ILE A   2      10.394  17.627   9.958  0.00  0.00    +0.150 HD
ATOM     10  O   SER A   1      10.652  15.644   7.497  0.00  0.00    -0.274 OA
BRANCH   7  11
ATOM     11  CA  SER A   1       8.826  15.881   9.081  0.00  0.00    +0.174 C 
BRANCH  11  12
ATOM     12  N   SER A   1       7.888  15.707   7.965  0.00  0.00    -0.236 NA
ATOM     13  H   SER A   1       7.725  14.759   7.569  0.00  0.00    +0.142 HD
ENDBRANCH  11  12
BRANCH  11  14
ATOM     14  CB  SER A   1       8.830  14.697  10.063  0.00  0.00    +0.163 C 
BRANCH  14  15
ATOM     15  OG  SER A   1       9.234  13.507   9.397  0.00  0.00    -0.380 OA
ATOM     16  H   SER A   1      10.146  13.628   9.031  0.00  0.00    +0.211 HD
ENDBRANCH  14  15
ENDBRANCH  11  14
ENDBRANCH   7  11
ENDBRANCH   6   8
BRANCH   6  17
ATOM     17  CB  ILE A   2      12.400  18.890   8.320  0.00  0.00    +0.027 C 
ATOM     18  CG2 ILE A   2      13.929  19.217   8.172  0.00  0.00    +0.002 C 
BRANCH  17  19
ATOM     19  CG1 ILE A   2      11.653  18.992   6.985  0.00  0.00    +0.002 C 
ATOM     20  CD1 ILE A   2      11.498  20.382   6.360  0.00  0.00    +0.000 C 
ENDBRANCH  17  19
ENDBRANCH   6  17
ENDBRANCH   2   6
ENDBRANCH   1   4
BRANCH   1  21
ATOM     21  C   PHE A   3      15.939  15.317  11.141  0.00  0.00    +0.241 C 
ATOM     22  N   VAL A   4      17.096  15.903  11.433  0.00  0.00    -0.297 N 
ATOM     23  H   VAL A   4      17.102  16.835  11.894  0.00  0.00    +0.150 HD
ATOM     24  O   PHE A   3      15.873  14.221  10.563  0.00  0.00    -0.273 OA
BRANCH  22  25
ATOM     25  CA  VAL A   4      18.345  15.250  11.113  0.00  0.00    +0.149 C 
BRANCH  25  26
ATOM     26  C   VAL A   4      18.647  14.411  12.347  0.00  0.00    +0.241 C 
ATOM     27  O   VAL A   4      19.064  14.927  13.380  0.00  0.00    -0.273 OA
ATOM     28  N   ASN A   5      18.397  13.124  12.220  0.00  0.00    -0.298 N 
ATOM     29  H   ASN A   5      18.257  12.731  11.267  0.00  0.00    +0.150 HD
BRANCH  28  30
ATOM     30  CA  ASN A   5      18.310  12.232  13.368  0.00  0.00    +0.146 C 
BRANCH  30  31
ATOM     31  C   ASN A   5      19.690  11.801  13.832  0.00  0.00    +0.227 C 
ATOM     32  O   ASN A   5      20.333  11.012  13.145  0.00  0.00    -0.286 OA
ENDBRANCH  30  31
BRANCH  30  33
ATOM     33  CB  ASN A   5      17.486  10.991  12.949  0.00  0.00    +0.112 C 
BRANCH  33  34
ATOM     34  CG  ASN A   5      17.472   9.911  14.027  0.00  0.00    +0.222 C 
ATOM     35  OD1 ASN A   5      17.512  10.222  15.211  0.00  0.00    -0.275 OA
ATOM     36  ND2 ASN A   5      17.447   8.645  13.615  0.00  0.00    -0.329 N 
ATOM     37 HD21 ASN A   5      17.461   7.872  14.310  0.00  0.00    +0.145 HD
ATOM     38 HD22 ASN A   5      17.413   8.430  12.598  0.00  0.00    +0.145 HD
ENDBRANCH  33  34
ENDBRANCH  30  33
ENDBRANCH  28  30
ENDBRANCH  25  26
BRANCH  25  39
ATOM     39  CB  VAL A   4      19.480  16.230  10.803  0.00  0.00    +0.027 C 
ATOM     40  CG2 VAL A   4      20.745  15.466  10.448  0.00  0.00    +0.002 C 
ATOM     41  CG1 VAL A   4      19.077  17.198   9.639  0.00  0.00    +0.002 C 
ENDBRANCH  25  39
ENDBRANCH  22  25
ENDBRANCH   1  21
BRANCH   1  42
ATOM     42  CB  PHE A   3      13.809  15.308  12.519  0.00  0.00    +0.055 C 
BRANCH  42  43
ATOM     43  CG  PHE A   3      14.543  14.941  13.800  0.00  0.00    -0.020 A 
ATOM     44  CD2 PHE A   3      15.016  15.949  14.627  0.00  0.00    -0.004 A 
ATOM     45  CE2 PHE A   3      15.684  15.653  15.800  0.00  0.00    -0.000 A 
ATOM     46  CZ  PHE A   3      15.884  14.308  16.177  0.00  0.00    -0.000 A 
ATOM     47  CE1 PHE A   3      15.402  13.293  15.381  0.00  0.00    -0.000 A 
ATOM     48  CD1 PHE A   3      14.715  13.615  14.188  0.00  0.00    -0.004 A 
ENDBRANCH  42  43
ENDBRANCH   1  42
TORSDOF 19
REMARK  Name = ../refined-set-2016/3cow/3cow_pocket.pdb
REMARK  226 active torsions:
REMARK  status: ('A' for Active; 'I' for Inactive)
REMARK    1  A    between atoms: _1  and  _3
REMARK    2  A    between atoms: _3  and  _4
REMARK    3  A    between atoms: _3  and  _6
REMARK    4  A    between atoms: _10  and  _11
REMARK    5  A    between atoms: _16  and  _18
REMARK    6  A    between atoms: _18  and  _19
REMARK    7  A    between atoms: _18  and  _21
REMARK    8  A    between atoms: _21  and  _22
REMARK    9  A    between atoms: _25  and  _27
REMARK   10  A    between atoms: _27  and  _28
REMARK   11  A    between atoms: _27  and  _30
REMARK   12  A    between atoms: _30  and  _31
REMARK   13  A    between atoms: _31  and  _32
REMARK   14  A    between atoms: _34  and  _36
REMARK   15  A    between atoms: _36  and  _37
REMARK   16  A    between atoms: _39  and  _41
REMARK   17  A    between atoms: _41  and  _42
REMARK   18  A    between atoms: _45  and  _47
REMARK   19  A    between atoms: _47  and  _48
REMARK   20  A    between atoms: _47  and  _50
REMARK   21  A    between atoms: _50  and  _51
REMARK   22  A    between atoms: _54  and  _56
REMARK   23  A    between atoms: _56  and  _57
REMARK   24  A    between atoms: _56  and  _59
REMARK   25  A    between atoms: _59  and  _60
REMARK   26  A    between atoms: _65  and  _67
REMARK   27  A    between atoms: _67  and  _68
REMARK   28  A    between atoms: _67  and  _70
REMARK   29  A    between atoms: _70  and  _71
REMARK   30  A    between atoms: _71  and  _72
REMARK   31  A    between atoms: _75  and  _77
REMARK   32  A    between atoms: _77  and  _78
REMARK   33  A    between atoms: _80  and  _82
REMARK   34  A    between atoms: _82  and  _83
REMARK   35  A    between atoms: _82  and  _85
REMARK   36  A    between atoms: _85  and  _86
REMARK   37  A    between atoms: _91  and  _93
REMARK   38  A    between atoms: _93  and  _94
REMARK   39  A    between atoms: _93  and  _96
REMARK   40  A    between atoms: _96  and  _97
REMARK   41  A    between atoms: _100  and  _102
REMARK   42  A    between atoms: _102  and  _103
REMARK   43  A    between atoms: _106  and  _108
REMARK   44  A    between atoms: _108  and  _109
REMARK   45  A    between atoms: _108  and  _111
REMARK   46  A    between atoms: _111  and  _112
REMARK   47  A    between atoms: _115  and  _117
REMARK   48  A    between atoms: _117  and  _118
REMARK   49  A    between atoms: _117  and  _120
REMARK   50  A    between atoms: _123  and  _125
REMARK   51  A    between atoms: _125  and  _126
REMARK   52  A    between atoms: _125  and  _128
REMARK   53  A    between atoms: _128  and  _129
REMARK   54  A    between atoms: _131  and  _133
REMARK   55  A    between atoms: _133  and  _134
REMARK   56  A    between atoms: _133  and  _136
REMARK   57  A    between atoms: _136  and  _137
REMARK   58  A    between atoms: _140  and  _142
REMARK   59  A    between atoms: _142  and  _143
REMARK   60  A    between atoms: _142  and  _145
REMARK   61  A    between atoms: _145  and  _146
REMARK   62  A    between atoms: _152  and  _154
REMARK   63  A    between atoms: _154  and  _155
REMARK   64  A    between atoms: _154  and  _157
REMARK   65  A    between atoms: _160  and  _162
REMARK   66  A    between atoms: _162  and  _163
REMARK   67  A    between atoms: _162  and  _165
REMARK   68  A    between atoms: _165  and  _166
REMARK   69  A    between atoms: _171  and  _173
REMARK   70  A    between atoms: _173  and  _174
REMARK   71  A    between atoms: _173  and  _176
REMARK   72  A    between atoms: _176  and  _177
REMARK   73  A    between atoms: _177  and  _178
REMARK   74  A    between atoms: _183  and  _185
REMARK   75  A    between atoms: _185  and  _186
REMARK   76  A    between atoms: _185  and  _188
REMARK   77  A    between atoms: _188  and  _189
REMARK   78  A    between atoms: _195  and  _197
REMARK   79  A    between atoms: _197  and  _198
REMARK   80  A    between atoms: _197  and  _200
REMARK   81  A    between atoms: _200  and  _201
REMARK   82  A    between atoms: _206  and  _207
REMARK   83  A    between atoms: _209  and  _211
REMARK   84  A    between atoms: _211  and  _212
REMARK   85  A    between atoms: _211  and  _214
REMARK   86  A    between atoms: _214  and  _215
REMARK   87  A    between atoms: _220  and  _221
REMARK   88  A    between atoms: _223  and  _225
REMARK   89  A    between atoms: _225  and  _226
REMARK   90  A    between atoms: _225  and  _228
REMARK   91  A    between atoms: _228  and  _229
REMARK   92  A    between atoms: _234  and  _236
REMARK   93  A    between atoms: _236  and  _237
REMARK   94  A    between atoms: _236  and  _239
REMARK   95  A    between atoms: _239  and  _240
REMARK   96  A    between atoms: _246  and  _248
REMARK   97  A    between atoms: _248  and  _249
REMARK   98  A    between atoms: _251  and  _253
REMARK   99  A    between atoms: _253  and  _254
REMARK  100  A    between atoms: _253  and  _256
REMARK  101  A    between atoms: _259  and  _261
REMARK  102  A    between atoms: _261  and  _262
REMARK  103  A    between atoms: _261  and  _264
REMARK  104  A    between atoms: _264  and  _265
REMARK  105  A    between atoms: _268  and  _270
REMARK  106  A    between atoms: _270  and  _271
REMARK  107  A    between atoms: _270  and  _273
REMARK  108  A    between atoms: _273  and  _274
REMARK  109  A    between atoms: _277  and  _279
REMARK  110  A    between atoms: _279  and  _280
REMARK  111  A    between atoms: _279  and  _282
REMARK  112  A    between atoms: _285  and  _287
REMARK  113  A    between atoms: _287  and  _288
REMARK  114  A    between atoms: _287  and  _290
REMARK  115  A    between atoms: _293  and  _295
REMARK  116  A    between atoms: _295  and  _296
REMARK  117  A    between atoms: _295  and  _298
REMARK  118  A    between atoms: _298  and  _299
REMARK  119  A    between atoms: _302  and  _304
REMARK  120  A    between atoms: _304  and  _305
REMARK  121  A    between atoms: _304  and  _307
REMARK  122  A    between atoms: _307  and  _308
REMARK  123  A    between atoms: _311  and  _313
REMARK  124  A    between atoms: _313  and  _314
REMARK  125  A    between atoms: _313  and  _316
REMARK  126  A    between atoms: _316  and  _317
REMARK  127  A    between atoms: _323  and  _325
REMARK  128  A    between atoms: _325  and  _326
REMARK  129  A    between atoms: _325  and  _328
REMARK  130  A    between atoms: _328  and  _329
REMARK  131  A    between atoms: _335  and  _337
REMARK  132  A    between atoms: _337  and  _338
REMARK  133  A    between atoms: _340  and  _342
REMARK  134  A    between atoms: _342  and  _343
REMARK  135  A    between atoms: _342  and  _345
REMARK  136  A    between atoms: _345  and  _346
REMARK  137  A    between atoms: _346  and  _347
REMARK  138  A    between atoms: _350  and  _352
REMARK  139  A    between atoms: _352  and  _353
REMARK  140  A    between atoms: _352  and  _355
REMARK  141  A    between atoms: _355  and  _356
REMARK  142  A    between atoms: _356  and  _357
REMARK  143  A    between atoms: _357  and  _358
REMARK  144  A    between atoms: _358  and  _359
REMARK  145  A    between atoms: _363  and  _365
REMARK  146  A    between atoms: _365  and  _366
REMARK  147  A    between atoms: _365  and  _368
REMARK  148  A    between atoms: _368  and  _369
REMARK  149  A    between atoms: _372  and  _374
REMARK  150  A    between atoms: _374  and  _375
REMARK  151  A    between atoms: _374  and  _377
REMARK  152  A    between atoms: _377  and  _378
REMARK  153  A    between atoms: _383  and  _384
REMARK  154  A    between atoms: _386  and  _388
REMARK  155  A    between atoms: _388  and  _389
REMARK  156  A    between atoms: _388  and  _391
REMARK  157  A    between atoms: _391  and  _392
REMARK  158  A    between atoms: _392  and  _393
REMARK  159  A    between atoms: _398  and  _400
REMARK  160  A    between atoms: _400  and  _401
REMARK  161  A    between atoms: _400  and  _403
REMARK  162  A    between atoms: _403  and  _404
REMARK  163  A    between atoms: _407  and  _409
REMARK  164  A    between atoms: _409  and  _410
REMARK  165  A    between atoms: _409  and  _412
REMARK  166  A    between atoms: _412  and  _413
REMARK  167  A    between atoms: _416  and  _418
REMARK  168  A    between atoms: _418  and  _419
REMARK  169  A    between atoms: _418  and  _421
REMARK  170  A    between atoms: _424  and  _426
REMARK  171  A    between atoms: _426  and  _427
REMARK  172  A    between atoms: _429  and  _431
REMARK  173  A    between atoms: _431  and  _432
REMARK  174  A    between atoms: _431  and  _434
REMARK  175  A    between atoms: _438  and  _439
REMARK  176  A    between atoms: _444  and  _446
REMARK  177  A    between atoms: _446  and  _447
REMARK  178  A    between atoms: _446  and  _449
REMARK  179  A    between atoms: _449  and  _450
REMARK  180  A    between atoms: _453  and  _455
REMARK  181  A    between atoms: _455  and  _456
REMARK  182  A    between atoms: _455  and  _458
REMARK  183  A    between atoms: _461  and  _463
REMARK  184  A    between atoms: _463  and  _464
REMARK  185  A    between atoms: _463  and  _466
REMARK  186  A    between atoms: _466  and  _467
REMARK  187  A    between atoms: _467  and  _468
REMARK  188  A    between atoms: _468  and  _469
REMARK  189  A    between atoms: _478  and  _480
REMARK  190  A    between atoms: _480  and  _481
REMARK  191  A    between atoms: _480  and  _483
REMARK  192  A    between atoms: _483  and  _484
REMARK  193  A    between atoms: _484  and  _485
REMARK  194  A    between atoms: _488  and  _490
REMARK  195  A    between atoms: _490  and  _491
REMARK  196  A    between atoms: _490  and  _493
REMARK  197  A    between atoms: _493  and  _494
REMARK  198  A    between atoms: _497  and  _499
REMARK  199  A    between atoms: _499  and  _500
REMARK  200  A    between atoms: _503  and  _505
REMARK  201  A    between atoms: _505  and  _506
REMARK  202  A    between atoms: _505  and  _508
REMARK  203  A    between atoms: _508  and  _509
REMARK  204  A    between atoms: _509  and  _510
REMARK  205  A    between atoms: _512  and  _514
REMARK  206  A    between atoms: _514  and  _515
REMARK  207  A    between atoms: _514  and  _517
REMARK  208  A    between atoms: _517  and  _518
REMARK  209  A    between atoms: _520  and  _522
REMARK  210  A    between atoms: _522  and  _523
REMARK  211  A    between atoms: _522  and  _525
REMARK  212  A    between atoms: _525  and  _526
REMARK  213  A    between atoms: _528  and  _530
REMARK  214  A    between atoms: _530  and  _531
REMARK  215  A    between atoms: _530  and  _533
REMARK  216  A    between atoms: _533  and  _534
REMARK  217  A    between atoms: _534  and  _535
REMARK  218  A    between atoms: _535  and  _536
REMARK  219  A    between atoms: _545  and  _547
REMARK  220  A    between atoms: _547  and  _548
REMARK  221  A    between atoms: _547  and  _550
REMARK  222  A    between atoms: _550  and  _551
REMARK  223  A    between atoms: _556  and  _558
REMARK  224  A    between atoms: _558  and  _559
REMARK  225  A    between atoms: _558  and  _561
REMARK  226  A    between atoms: _561  and  _562
REMARK                            x       y       z     vdW  Elec       q    Type
REMARK                         _______ _______ _______ _____ _____    ______ ____
ROOT
ATOM      1  C   GLN A   1      22.793   7.425  12.097  0.00  0.00    +0.238 C 
ATOM      2  N   PHE A   2      23.471   8.387  12.718  0.00  0.00    -0.298 N 
ATOM      3  H   PHE A   2      23.037   8.864  13.534  0.00  0.00    +0.150 HD
ATOM      4  O   GLN A   1      23.166   6.870  11.033  0.00  0.00    -0.274 OA
ENDROOT
BRANCH   1   5
ATOM      5  CA  GLN A   1      21.467   7.038  12.770  0.00  0.00    +0.145 C 
BRANCH   5   6
ATOM      6  N   GLN A   1      21.148   7.870  13.935  0.00  0.00    -0.238 NA
ATOM      7  H   GLN A   1      20.682   8.790  13.798  0.00  0.00    +0.142 HD
ENDBRANCH   5   6
BRANCH   5   8
ATOM      8  CB  GLN A   1      20.312   7.014  11.769  0.00  0.00    +0.036 C 
BRANCH   8   9
ATOM      9  CG  GLN A   1      20.019   8.376  11.038  0.00  0.00    +0.087 C 
BRANCH   9  10
ATOM     10  CD  GLN A   1      18.743   8.337  10.209  0.00  0.00    +0.219 C 
ATOM     11  OE1 GLN A   1      17.624   8.209  10.755  0.00  0.00    -0.275 OA
ATOM     12  NE2 GLN A   1      18.899   8.431   8.870  0.00  0.00    -0.329 N 
ATOM     13 HE21 GLN A   1      19.850   8.536   8.463  0.00  0.00    +0.145 HD
ATOM     14 HE22 GLN A   1      18.068   8.398   8.246  0.00  0.00    +0.145 HD
ENDBRANCH   9  10
ENDBRANCH   8   9
ENDBRANCH   5   8
ENDBRANCH   1   5
BRANCH   2  15
ATOM     15  CA  PHE A   2      24.791   8.788  12.294  0.00  0.00    +0.141 C 
BRANCH  15  16
ATOM     16  C   PHE A   2      25.844   8.132  13.189  0.00  0.00    +0.227 C 
ATOM     17  O   PHE A   2      25.666   8.022  14.413  0.00  0.00    -0.286 OA
ENDBRANCH  15  16
BRANCH  15  18
ATOM     18  CB  PHE A   2      24.917  10.318  12.302  0.00  0.00    +0.054 C 
BRANCH  18  19
ATOM     19  CG  PHE A   2      24.120  11.005  11.217  0.00  0.00    -0.020 A 
ATOM     20  CD2 PHE A   2      22.748  11.276  11.391  0.00  0.00    -0.004 A 
ATOM     21  CE2 PHE A   2      21.997  11.924  10.403  0.00  0.00    -0.000 A 
ATOM     22  CZ  PHE A   2      22.600  12.314   9.208  0.00  0.00    -0.000 A 
ATOM     23  CE1 PHE A   2      23.986  12.063   9.021  0.00  0.00    -0.000 A 
ATOM     24  CD1 PHE A   2      24.734  11.413  10.034  0.00  0.00    -0.004 A 
ENDBRANCH  18  19
ENDBRANCH  15  18
ENDBRANCH   2  15
TORSDOF 9
REMARK  Name = ../refined-set-2016/3cow/3cow_pocket.pdb
REMARK  226 active torsions:
REMARK  status: ('A' for Active; 'I' for Inactive)
REMARK    1  A    between atoms: _1  and  _3
REMARK    2  A    between atoms: _3  and  _4
REMARK    3  A    between atoms: _3  and  _6
REMARK    4  A    between atoms: _10  and  _11
REMARK    5  A    between atoms: _16  and  _18
REMARK    6  A    between atoms: _18  and  _19
REMARK    7  A    between atoms: _18  and  _21
REMARK    8  A    between atoms: _21  and  _22
REMARK    9  A    between atoms: _25  and  _27
REMARK   10  A    between atoms: _27  and  _28
REMARK   11  A    between atoms: _27  and  _30
REMARK   12  A    between atoms: _30  and  _31
REMARK   13  A    between atoms: _31  and  _32
REMARK   14  A    between atoms: _34  and  _36
REMARK   15  A    between atoms: _36  and  _37
REMARK   16  A    between atoms: _39  and  _41
REMARK   17  A    between atoms: _41  and  _42
REMARK   18  A    between atoms: _45  and  _47
REMARK   19  A    between atoms: _47  and  _48
REMARK   20  A    between atoms: _47  and  _50
REMARK   21  A    between atoms: _50  and  _51
REMARK   22  A    between atoms: _54  and  _56
REMARK   23  A    between atoms: _56  and  _57
REMARK   24  A    between atoms: _56  and  _59
REMARK   25  A    between atoms: _59  and  _60
REMARK   26  A    between atoms: _65  and  _67
REMARK   27  A    between atoms: _67  and  _68
REMARK   28  A    between atoms: _67  and  _70
REMARK   29  A    between atoms: _70  and  _71
REMARK   30  A    between atoms: _71  and  _72
REMARK   31  A    between atoms: _75  and  _77
REMARK   32  A    between atoms: _77  and  _78
REMARK   33  A    between atoms: _80  and  _82
REMARK   34  A    between atoms: _82  and  _83
REMARK   35  A    between atoms: _82  and  _85
REMARK   36  A    between atoms: _85  and  _86
REMARK   37  A    between atoms: _91  and  _93
REMARK   38  A    between atoms: _93  and  _94
REMARK   39  A    between atoms: _93  and  _96
REMARK   40  A    between atoms: _96  and  _97
REMARK   41  A    between atoms: _100  and  _102
REMARK   42  A    between atoms: _102  and  _103
REMARK   43  A    between atoms: _106  and  _108
REMARK   44  A    between atoms: _108  and  _109
REMARK   45  A    between atoms: _108  and  _111
REMARK   46  A    between atoms: _111  and  _112
REMARK   47  A    between atoms: _115  and  _117
REMARK   48  A    between atoms: _117  and  _118
REMARK   49  A    between atoms: _117  and  _120
REMARK   50  A    between atoms: _123  and  _125
REMARK   51  A    between atoms: _125  and  _126
REMARK   52  A    between atoms: _125  and  _128
REMARK   53  A    between atoms: _128  and  _129
REMARK   54  A    between atoms: _131  and  _133
REMARK   55  A    between atoms: _133  and  _134
REMARK   56  A    between atoms: _133  and  _136
REMARK   57  A    between atoms: _136  and  _137
REMARK   58  A    between atoms: _140  and  _142
REMARK   59  A    between atoms: _142  and  _143
REMARK   60  A    between atoms: _142  and  _145
REMARK   61  A    between atoms: _145  and  _146
REMARK   62  A    between atoms: _152  and  _154
REMARK   63  A    between atoms: _154  and  _155
REMARK   64  A    between atoms: _154  and  _157
REMARK   65  A    between atoms: _160  and  _162
REMARK   66  A    between atoms: _162  and  _163
REMARK   67  A    between atoms: _162  and  _165
REMARK   68  A    between atoms: _165  and  _166
REMARK   69  A    between atoms: _171  and  _173
REMARK   70  A    between atoms: _173  and  _174
REMARK   71  A    between atoms: _173  and  _176
REMARK   72  A    between atoms: _176  and  _177
REMARK   73  A    between atoms: _177  and  _178
REMARK   74  A    between atoms: _183  and  _185
REMARK   75  A    between atoms: _185  and  _186
REMARK   76  A    between atoms: _185  and  _188
REMARK   77  A    between atoms: _188  and  _189
REMARK   78  A    between atoms: _195  and  _197
REMARK   79  A    between atoms: _197  and  _198
REMARK   80  A    between atoms: _197  and  _200
REMARK   81  A    between atoms: _200  and  _201
REMARK   82  A    between atoms: _206  and  _207
REMARK   83  A    between atoms: _209  and  _211
REMARK   84  A    between atoms: _211  and  _212
REMARK   85  A    between atoms: _211  and  _214
REMARK   86  A    between atoms: _214  and  _215
REMARK   87  A    between atoms: _220  and  _221
REMARK   88  A    between atoms: _223  and  _225
REMARK   89  A    between atoms: _225  and  _226
REMARK   90  A    between atoms: _225  and  _228
REMARK   91  A    between atoms: _228  and  _229
REMARK   92  A    between atoms: _234  and  _236
REMARK   93  A    between atoms: _236  and  _237
REMARK   94  A    between atoms: _236  and  _239
REMARK   95  A    between atoms: _239  and  _240
REMARK   96  A    between atoms: _246  and  _248
REMARK   97  A    between atoms: _248  and  _249
REMARK   98  A    between atoms: _251  and  _253
REMARK   99  A    between atoms: _253  and  _254
REMARK  100  A    between atoms: _253  and  _256
REMARK  101  A    between atoms: _259  and  _261
REMARK  102  A    between atoms: _261  and  _262
REMARK  103  A    between atoms: _261  and  _264
REMARK  104  A    between atoms: _264  and  _265
REMARK  105  A    between atoms: _268  and  _270
REMARK  106  A    between atoms: _270  and  _271
REMARK  107  A    between atoms: _270  and  _273
REMARK  108  A    between atoms: _273  and  _274
REMARK  109  A    between atoms: _277  and  _279
REMARK  110  A    between atoms: _279  and  _280
REMARK  111  A    between atoms: _279  and  _282
REMARK  112  A    between atoms: _285  and  _287
REMARK  113  A    between atoms: _287  and  _288
REMARK  114  A    between atoms: _287  and  _290
REMARK  115  A    between atoms: _293  and  _295
REMARK  116  A    between atoms: _295  and  _296
REMARK  117  A    between atoms: _295  and  _298
REMARK  118  A    between atoms: _298  and  _299
REMARK  119  A    between atoms: _302  and  _304
REMARK  120  A    between atoms: _304  and  _305
REMARK  121  A    between atoms: _304  and  _307
REMARK  122  A    between atoms: _307  and  _308
REMARK  123  A    between atoms: _311  and  _313
REMARK  124  A    between atoms: _313  and  _314
REMARK  125  A    between atoms: _313  and  _316
REMARK  126  A    between atoms: _316  and  _317
REMARK  127  A    between atoms: _323  and  _325
REMARK  128  A    between atoms: _325  and  _326
REMARK  129  A    between atoms: _325  and  _328
REMARK  130  A    between atoms: _328  and  _329
REMARK  131  A    between atoms: _335  and  _337
REMARK  132  A    between atoms: _337  and  _338
REMARK  133  A    between atoms: _340  and  _342
REMARK  134  A    between atoms: _342  and  _343
REMARK  135  A    between atoms: _342  and  _345
REMARK  136  A    between atoms: _345  and  _346
REMARK  137  A    between atoms: _346  and  _347
REMARK  138  A    between atoms: _350  and  _352
REMARK  139  A    between atoms: _352  and  _353
REMARK  140  A    between atoms: _352  and  _355
REMARK  141  A    between atoms: _355  and  _356
REMARK  142  A    between atoms: _356  and  _357
REMARK  143  A    between atoms: _357  and  _358
REMARK  144  A    between atoms: _358  and  _359
REMARK  145  A    between atoms: _363  and  _365
REMARK  146  A    between atoms: _365  and  _366
REMARK  147  A    between atoms: _365  and  _368
REMARK  148  A    between atoms: _368  and  _369
REMARK  149  A    between atoms: _372  and  _374
REMARK  150  A    between atoms: _374  and  _375
REMARK  151  A    between atoms: _374  and  _377
REMARK  152  A    between atoms: _377  and  _378
REMARK  153  A    between atoms: _383  and  _384
REMARK  154  A    between atoms: _386  and  _388
REMARK  155  A    between atoms: _388  and  _389
REMARK  156  A    between atoms: _388  and  _391
REMARK  157  A    between atoms: _391  and  _392
REMARK  158  A    between atoms: _392  and  _393
REMARK  159  A    between atoms: _398  and  _400
REMARK  160  A    between atoms: _400  and  _401
REMARK  161  A    between atoms: _400  and  _403
REMARK  162  A    between atoms: _403  and  _404
REMARK  163  A    between atoms: _407  and  _409
REMARK  164  A    between atoms: _409  and  _410
REMARK  165  A    between atoms: _409  and  _412
REMARK  166  A    between atoms: _412  and  _413
REMARK  167  A    between atoms: _416  and  _418
REMARK  168  A    between atoms: _418  and  _419
REMARK  169  A    between atoms: _418  and  _421
REMARK  170  A    between atoms: _424  and  _426
REMARK  171  A    between atoms: _426  and  _427
REMARK  172  A    between atoms: _429  and  _431
REMARK  173  A    between atoms: _431  and  _432
REMARK  174  A    between atoms: _431  and  _434
REMARK  175  A    between atoms: _438  and  _439
REMARK  176  A    between atoms: _444  and  _446
REMARK  177  A    between atoms: _446  and  _447
REMARK  178  A    between atoms: _446  and  _449
REMARK  179  A    between atoms: _449  and  _450
REMARK  180  A    between atoms: _453  and  _455
REMARK  181  A    between atoms: _455  and  _456
REMARK  182  A    between atoms: _455  and  _458
REMARK  183  A    between atoms: _461  and  _463
REMARK  184  A    between atoms: _463  and  _464
REMARK  185  A    between atoms: _463  and  _466
REMARK  186  A    between atoms: _466  and  _467
REMARK  187  A    between atoms: _467  and  _468
REMARK  188  A    between atoms: _468  and  _469
REMARK  189  A    between atoms: _478  and  _480
REMARK  190  A    between atoms: _480  and  _481
REMARK  191  A    between atoms: _480  and  _483
REMARK  192  A    between atoms: _483  and  _484
REMARK  193  A    between atoms: _484  and  _485
REMARK  194  A    between atoms: _488  and  _490
REMARK  195  A    between atoms: _490  and  _491
REMARK  196  A    between atoms: _490  and  _493
REMARK  197  A    between atoms: _493  and  _494
REMARK  198  A    between atoms: _497  and  _499
REMARK  199  A    between atoms: _499  and  _500
REMARK  200  A    between atoms: _503  and  _505
REMARK  201  A    between atoms: _505  and  _506
REMARK  202  A    between atoms: _505  and  _508
REMARK  203  A    between atoms: _508  and  _509
REMARK  204  A    between atoms: _509  and  _510
REMARK  205  A    between atoms: _512  and  _514
REMARK  206  A    between atoms: _514  and  _515
REMARK  207  A    between atoms: _514  and  _517
REMARK  208  A    between atoms: _517  and  _518
REMARK  209  A    between atoms: _520  and  _522
REMARK  210  A    between atoms: _522  and  _523
REMARK  211  A    between atoms: _522  and  _525
REMARK  212  A    between atoms: _525  and  _526
REMARK  213  A    between atoms: _528  and  _530
REMARK  214  A    between atoms: _530  and  _531
REMARK  215  A    between atoms: _530  and  _533
REMARK  216  A    between atoms: _533  and  _534
REMARK  217  A    between atoms: _534  and  _535
REMARK  218  A    between atoms: _535  and  _536
REMARK  219  A    between atoms: _545  and  _547
REMARK  220  A    between atoms: _547  and  _548
REMARK  221  A    between atoms: _547  and  _550
REMARK  222  A    between atoms: _550  and  _551
REMARK  223  A    between atoms: _556  and  _558
REMARK  224  A    between atoms: _558  and  _559
REMARK  225  A    between atoms: _558  and  _561
REMARK  226  A    between atoms: _561  and  _562
REMARK                            x       y       z     vdW  Elec       q    Type
REMARK                         _______ _______ _______ _____ _____    ______ ____
ROOT
ATOM      1  CG  TYR A   1      22.629  15.390   6.744  0.00  0.00    -0.020 A 
ATOM      2  CD2 TYR A   1      21.428  16.050   6.485  0.00  0.00    -0.001 A 
ATOM      3  CE2 TYR A   1      20.470  15.491   5.631  0.00  0.00    +0.036 A 
ATOM      4  CZ  TYR A   1      20.721  14.270   5.021  0.00  0.00    +0.134 A 
ATOM      5  CE1 TYR A   1      21.907  13.599   5.235  0.00  0.00    +0.036 A 
ATOM      6  CD1 TYR A   1      22.866  14.167   6.096  0.00  0.00    -0.001 A 
ENDROOT
BRANCH   4   7
ATOM      7  OH  TYR A   1      19.785  13.709   4.189  0.00  0.00    -0.506 OA
ATOM      8  HH  TYR A   1      19.609  14.322   3.432  0.00  0.00    +0.292 HD
ENDBRANCH   4   7
BRANCH   1   9
ATOM      9  CB  TYR A   1      23.686  16.010   7.634  0.00  0.00    +0.051 C 
BRANCH   9  10
ATOM     10  CA  TYR A   1      24.746  16.703   6.761  0.00  0.00    +0.137 C 
BRANCH  10  11
ATOM     11  N   TYR A   1      26.025  16.854   7.462  0.00  0.00    -0.239 NA
ATOM     12  H   TYR A   1      26.127  16.520   8.442  0.00  0.00    +0.142 HD
ENDBRANCH  10  11
BRANCH  10  13
ATOM     13  C   TYR A   1      24.220  18.074   6.315  0.00  0.00    +0.224 C 
ATOM     14  O   TYR A   1      24.175  18.994   7.126  0.00  0.00    -0.287 OA
ENDBRANCH  10  13
ENDBRANCH   9  10
ENDBRANCH   1   9
TORSDOF 5
REMARK  Name = ../refined-set-2016/3cow/3cow_pocket.pdb
REMARK  226 active torsions:
REMARK  status: ('A' for Active; 'I' for Inactive)
REMARK    1  A    between atoms: _1  and  _3
REMARK    2  A    between atoms: _3  and  _4
REMARK    3  A    between atoms: _3  and  _6
REMARK    4  A    between atoms: _10  and  _11
REMARK    5  A    between atoms: _16  and  _18
REMARK    6  A    between atoms: _18  and  _19
REMARK    7  A    between atoms: _18  and  _21
REMARK    8  A    between atoms: _21  and  _22
REMARK    9  A    between atoms: _25  and  _27
REMARK   10  A    between atoms: _27  and  _28
REMARK   11  A    between atoms: _27  and  _30
REMARK   12  A    between atoms: _30  and  _31
REMARK   13  A    between atoms: _31  and  _32
REMARK   14  A    between atoms: _34  and  _36
REMARK   15  A    between atoms: _36  and  _37
REMARK   16  A    between atoms: _39  and  _41
REMARK   17  A    between atoms: _41  and  _42
REMARK   18  A    between atoms: _45  and  _47
REMARK   19  A    between atoms: _47  and  _48
REMARK   20  A    between atoms: _47  and  _50
REMARK   21  A    between atoms: _50  and  _51
REMARK   22  A    between atoms: _54  and  _56
REMARK   23  A    between atoms: _56  and  _57
REMARK   24  A    between atoms: _56  and  _59
REMARK   25  A    between atoms: _59  and  _60
REMARK   26  A    between atoms: _65  and  _67
REMARK   27  A    between atoms: _67  and  _68
REMARK   28  A    between atoms: _67  and  _70
REMARK   29  A    between atoms: _70  and  _71
REMARK   30  A    between atoms: _71  and  _72
REMARK   31  A    between atoms: _75  and  _77
REMARK   32  A    between atoms: _77  and  _78
REMARK   33  A    between atoms: _80  and  _82
REMARK   34  A    between atoms: _82  and  _83
REMARK   35  A    between atoms: _82  and  _85
REMARK   36  A    between atoms: _85  and  _86
REMARK   37  A    between atoms: _91  and  _93
REMARK   38  A    between atoms: _93  and  _94
REMARK   39  A    between atoms: _93  and  _96
REMARK   40  A    between atoms: _96  and  _97
REMARK   41  A    between atoms: _100  and  _102
REMARK   42  A    between atoms: _102  and  _103
REMARK   43  A    between atoms: _106  and  _108
REMARK   44  A    between atoms: _108  and  _109
REMARK   45  A    between atoms: _108  and  _111
REMARK   46  A    between atoms: _111  and  _112
REMARK   47  A    between atoms: _115  and  _117
REMARK   48  A    between atoms: _117  and  _118
REMARK   49  A    between atoms: _117  and  _120
REMARK   50  A    between atoms: _123  and  _125
REMARK   51  A    between atoms: _125  and  _126
REMARK   52  A    between atoms: _125  and  _128
REMARK   53  A    between atoms: _128  and  _129
REMARK   54  A    between atoms: _131  and  _133
REMARK   55  A    between atoms: _133  and  _134
REMARK   56  A    between atoms: _133  and  _136
REMARK   57  A    between atoms: _136  and  _137
REMARK   58  A    between atoms: _140  and  _142
REMARK   59  A    between atoms: _142  and  _143
REMARK   60  A    between atoms: _142  and  _145
REMARK   61  A    between atoms: _145  and  _146
REMARK   62  A    between atoms: _152  and  _154
REMARK   63  A    between atoms: _154  and  _155
REMARK   64  A    between atoms: _154  and  _157
REMARK   65  A    between atoms: _160  and  _162
REMARK   66  A    between atoms: _162  and  _163
REMARK   67  A    between atoms: _162  and  _165
REMARK   68  A    between atoms: _165  and  _166
REMARK   69  A    between atoms: _171  and  _173
REMARK   70  A    between atoms: _173  and  _174
REMARK   71  A    between atoms: _173  and  _176
REMARK   72  A    between atoms: _176  and  _177
REMARK   73  A    between atoms: _177  and  _178
REMARK   74  A    between atoms: _183  and  _185
REMARK   75  A    between atoms: _185  and  _186
REMARK   76  A    between atoms: _185  and  _188
REMARK   77  A    between atoms: _188  and  _189
REMARK   78  A    between atoms: _195  and  _197
REMARK   79  A    between atoms: _197  and  _198
REMARK   80  A    between atoms: _197  and  _200
REMARK   81  A    between atoms: _200  and  _201
REMARK   82  A    between atoms: _206  and  _207
REMARK   83  A    between atoms: _209  and  _211
REMARK   84  A    between atoms: _211  and  _212
REMARK   85  A    between atoms: _211  and  _214
REMARK   86  A    between atoms: _214  and  _215
REMARK   87  A    between atoms: _220  and  _221
REMARK   88  A    between atoms: _223  and  _225
REMARK   89  A    between atoms: _225  and  _226
REMARK   90  A    between atoms: _225  and  _228
REMARK   91  A    between atoms: _228  and  _229
REMARK   92  A    between atoms: _234  and  _236
REMARK   93  A    between atoms: _236  and  _237
REMARK   94  A    between atoms: _236  and  _239
REMARK   95  A    between atoms: _239  and  _240
REMARK   96  A    between atoms: _246  and  _248
REMARK   97  A    between atoms: _248  and  _249
REMARK   98  A    between atoms: _251  and  _253
REMARK   99  A    between atoms: _253  and  _254
REMARK  100  A    between atoms: _253  and  _256
REMARK  101  A    between atoms: _259  and  _261
REMARK  102  A    between atoms: _261  and  _262
REMARK  103  A    between atoms: _261  and  _264
REMARK  104  A    between atoms: _264  and  _265
REMARK  105  A    between atoms: _268  and  _270
REMARK  106  A    between atoms: _270  and  _271
REMARK  107  A    between atoms: _270  and  _273
REMARK  108  A    between atoms: _273  and  _274
REMARK  109  A    between atoms: _277  and  _279
REMARK  110  A    between atoms: _279  and  _280
REMARK  111  A    between atoms: _279  and  _282
REMARK  112  A    between atoms: _285  and  _287
REMARK  113  A    between atoms: _287  and  _288
REMARK  114  A    between atoms: _287  and  _290
REMARK  115  A    between atoms: _293  and  _295
REMARK  116  A    between atoms: _295  and  _296
REMARK  117  A    between atoms: _295  and  _298
REMARK  118  A    between atoms: _298  and  _299
REMARK  119  A    between atoms: _302  and  _304
REMARK  120  A    between atoms: _304  and  _305
REMARK  121  A    between atoms: _304  and  _307
REMARK  122  A    between atoms: _307  and  _308
REMARK  123  A    between atoms: _311  and  _313
REMARK  124  A    between atoms: _313  and  _314
REMARK  125  A    between atoms: _313  and  _316
REMARK  126  A    between atoms: _316  and  _317
REMARK  127  A    between atoms: _323  and  _325
REMARK  128  A    between atoms: _325  and  _326
REMARK  129  A    between atoms: _325  and  _328
REMARK  130  A    between atoms: _328  and  _329
REMARK  131  A    between atoms: _335  and  _337
REMARK  132  A    between atoms: _337  and  _338
REMARK  133  A    between atoms: _340  and  _342
REMARK  134  A    between atoms: _342  and  _343
REMARK  135  A    between atoms: _342  and  _345
REMARK  136  A    between atoms: _345  and  _346
REMARK  137  A    between atoms: _346  and  _347
REMARK  138  A    between atoms: _350  and  _352
REMARK  139  A    between atoms: _352  and  _353
REMARK  140  A    between atoms: _352  and  _355
REMARK  141  A    between atoms: _355  and  _356
REMARK  142  A    between atoms: _356  and  _357
REMARK  143  A    between atoms: _357  and  _358
REMARK  144  A    between atoms: _358  and  _359
REMARK  145  A    between atoms: _363  and  _365
REMARK  146  A    between atoms: _365  and  _366
REMARK  147  A    between atoms: _365  and  _368
REMARK  148  A    between atoms: _368  and  _369
REMARK  149  A    between atoms: _372  and  _374
REMARK  150  A    between atoms: _374  and  _375
REMARK  151  A    between atoms: _374  and  _377
REMARK  152  A    between atoms: _377  and  _378
REMARK  153  A    between atoms: _383  and  _384
REMARK  154  A    between atoms: _386  and  _388
REMARK  155  A    between atoms: _388  and  _389
REMARK  156  A    between atoms: _388  and  _391
REMARK  157  A    between atoms: _391  and  _392
REMARK  158  A    between atoms: _392  and  _393
REMARK  159  A    between atoms: _398  and  _400
REMARK  160  A    between atoms: _400  and  _401
REMARK  161  A    between atoms: _400  and  _403
REMARK  162  A    between atoms: _403  and  _404
REMARK  163  A    between atoms: _407  and  _409
REMARK  164  A    between atoms: _409  and  _410
REMARK  165  A    between atoms: _409  and  _412
REMARK  166  A    between atoms: _412  and  _413
REMARK  167  A    between atoms: _416  and  _418
REMARK  168  A    between atoms: _418  and  _419
REMARK  169  A    between atoms: _418  and  _421
REMARK  170  A    between atoms: _424  and  _426
REMARK  171  A    between atoms: _426  and  _427
REMARK  172  A    between atoms: _429  and  _431
REMARK  173  A    between atoms: _431  and  _432
REMARK  174  A    between atoms: _431  and  _434
REMARK  175  A    between atoms: _438  and  _439
REMARK  176  A    between atoms: _444  and  _446
REMARK  177  A    between atoms: _446  and  _447
REMARK  178  A    between atoms: _446  and  _449
REMARK  179  A    between atoms: _449  and  _450
REMARK  180  A    between atoms: _453  and  _455
REMARK  181  A    between atoms: _455  and  _456
REMARK  182  A    between atoms: _455  and  _458
REMARK  183  A    between atoms: _461  and  _463
REMARK  184  A    between atoms: _463  and  _464
REMARK  185  A    between atoms: _463  and  _466
REMARK  186  A    between atoms: _466  and  _467
REMARK  187  A    between atoms: _467  and  _468
REMARK  188  A    between atoms: _468  and  _469
REMARK  189  A    between atoms: _478  and  _480
REMARK  190  A    between atoms: _480  and  _481
REMARK  191  A    between atoms: _480  and  _483
REMARK  192  A    between atoms: _483  and  _484
REMARK  193  A    between atoms: _484  and  _485
REMARK  194  A    between atoms: _488  and  _490
REMARK  195  A    between atoms: _490  and  _491
REMARK  196  A    between atoms: _490  and  _493
REMARK  197  A    between atoms: _493  and  _494
REMARK  198  A    between atoms: _497  and  _499
REMARK  199  A    between atoms: _499  and  _500
REMARK  200  A    between atoms: _503  and  _505
REMARK  201  A    between atoms: _505  and  _506
REMARK  202  A    between atoms: _505  and  _508
REMARK  203  A    between atoms: _508  and  _509
REMARK  204  A    between atoms: _509  and  _510
REMARK  205  A    between atoms: _512  and  _514
REMARK  206  A    between atoms: _514  and  _515
REMARK  207  A    between atoms: _514  and  _517
REMARK  208  A    between atoms: _517  and  _518
REMARK  209  A    between atoms: _520  and  _522
REMARK  210  A    between atoms: _522  and  _523
REMARK  211  A    between atoms: _522  and  _525
REMARK  212  A    between atoms: _525  and  _526
REMARK  213  A    between atoms: _528  and  _530
REMARK  214  A    between atoms: _530  and  _531
REMARK  215  A    between atoms: _530  and  _533
REMARK  216  A    between atoms: _533  and  _534
REMARK  217  A    between atoms: _534  and  _535
REMARK  218  A    between atoms: _535  and  _536
REMARK  219  A    between atoms: _545  and  _547
REMARK  220  A    between atoms: _547  and  _548
REMARK  221  A    between atoms: _547  and  _550
REMARK  222  A    between atoms: _550  and  _551
REMARK  223  A    between atoms: _556  and  _558
REMARK  224  A    between atoms: _558  and  _559
REMARK  225  A    between atoms: _558  and  _561
REMARK  226  A    between atoms: _561  and  _562
REMARK                            x       y       z     vdW  Elec       q    Type
REMARK                         _______ _______ _______ _____ _____    ______ ____
ROOT
ATOM      1  CG  TYR A   1      16.790  11.264  20.770  0.00  0.00    -0.020 A 
ATOM      2  CD2 TYR A   1      16.501   9.895  20.814  0.00  0.00    -0.001 A 
ATOM      3  CE2 TYR A   1      16.355   9.162  19.628  0.00  0.00    +0.036 A 
ATOM      4  CZ  TYR A   1      16.392   9.799  18.395  0.00  0.00    +0.134 A 
ATOM      5  CE1 TYR A   1      16.642  11.154  18.334  0.00  0.00    +0.036 A 
ATOM      6  CD1 TYR A   1      16.833  11.876  19.527  0.00  0.00    -0.001 A 
ENDROOT
BRANCH   4   7
ATOM      7  OH  TYR A   1      16.221   9.047  17.247  0.00  0.00    -0.506 OA
ATOM      8  HH  TYR A   1      17.039   9.103  16.692  0.00  0.00    +0.292 HD
ENDBRANCH   4   7
BRANCH   1   9
ATOM      9  CB  TYR A   1      16.956  12.067  22.040  0.00  0.00    +0.051 C 
BRANCH   9  10
ATOM     10  CA  TYR A   1      15.620  12.320  22.756  0.00  0.00    +0.137 C 
BRANCH  10  11
ATOM     11  N   TYR A   1      14.754  13.156  21.925  0.00  0.00    -0.239 NA
ATOM     12  H   TYR A   1      14.991  14.163  21.821  0.00  0.00    +0.142 HD
ENDBRANCH  10  11
BRANCH  10  13
ATOM     13  C   TYR A   1      15.883  12.916  24.166  0.00  0.00    +0.224 C 
ATOM     14  O   TYR A   1      17.064  13.059  24.546  0.00  0.00    -0.287 OA
ENDBRANCH  10  13
ENDBRANCH   9  10
ENDBRANCH   1   9
TORSDOF 5
REMARK  Name = ../refined-set-2016/3cow/3cow_pocket.pdb
REMARK  226 active torsions:
REMARK  status: ('A' for Active; 'I' for Inactive)
REMARK    1  A    between atoms: _1  and  _3
REMARK    2  A    between atoms: _3  and  _4
REMARK    3  A    between atoms: _3  and  _6
REMARK    4  A    between atoms: _10  and  _11
REMARK    5  A    between atoms: _16  and  _18
REMARK    6  A    between atoms: _18  and  _19
REMARK    7  A    between atoms: _18  and  _21
REMARK    8  A    between atoms: _21  and  _22
REMARK    9  A    between atoms: _25  and  _27
REMARK   10  A    between atoms: _27  and  _28
REMARK   11  A    between atoms: _27  and  _30
REMARK   12  A    between atoms: _30  and  _31
REMARK   13  A    between atoms: _31  and  _32
REMARK   14  A    between atoms: _34  and  _36
REMARK   15  A    between atoms: _36  and  _37
REMARK   16  A    between atoms: _39  and  _41
REMARK   17  A    between atoms: _41  and  _42
REMARK   18  A    between atoms: _45  and  _47
REMARK   19  A    between atoms: _47  and  _48
REMARK   20  A    between atoms: _47  and  _50
REMARK   21  A    between atoms: _50  and  _51
REMARK   22  A    between atoms: _54  and  _56
REMARK   23  A    between atoms: _56  and  _57
REMARK   24  A    between atoms: _56  and  _59
REMARK   25  A    between atoms: _59  and  _60
REMARK   26  A    between atoms: _65  and  _67
REMARK   27  A    between atoms: _67  and  _68
REMARK   28  A    between atoms: _67  and  _70
REMARK   29  A    between atoms: _70  and  _71
REMARK   30  A    between atoms: _71  and  _72
REMARK   31  A    between atoms: _75  and  _77
REMARK   32  A    between atoms: _77  and  _78
REMARK   33  A    between atoms: _80  and  _82
REMARK   34  A    between atoms: _82  and  _83
REMARK   35  A    between atoms: _82  and  _85
REMARK   36  A    between atoms: _85  and  _86
REMARK   37  A    between atoms: _91  and  _93
REMARK   38  A    between atoms: _93  and  _94
REMARK   39  A    between atoms: _93  and  _96
REMARK   40  A    between atoms: _96  and  _97
REMARK   41  A    between atoms: _100  and  _102
REMARK   42  A    between atoms: _102  and  _103
REMARK   43  A    between atoms: _106  and  _108
REMARK   44  A    between atoms: _108  and  _109
REMARK   45  A    between atoms: _108  and  _111
REMARK   46  A    between atoms: _111  and  _112
REMARK   47  A    between atoms: _115  and  _117
REMARK   48  A    between atoms: _117  and  _118
REMARK   49  A    between atoms: _117  and  _120
REMARK   50  A    between atoms: _123  and  _125
REMARK   51  A    between atoms: _125  and  _126
REMARK   52  A    between atoms: _125  and  _128
REMARK   53  A    between atoms: _128  and  _129
REMARK   54  A    between atoms: _131  and  _133
REMARK   55  A    between atoms: _133  and  _134
REMARK   56  A    between atoms: _133  and  _136
REMARK   57  A    between atoms: _136  and  _137
REMARK   58  A    between atoms: _140  and  _142
REMARK   59  A    between atoms: _142  and  _143
REMARK   60  A    between atoms: _142  and  _145
REMARK   61  A    between atoms: _145  and  _146
REMARK   62  A    between atoms: _152  and  _154
REMARK   63  A    between atoms: _154  and  _155
REMARK   64  A    between atoms: _154  and  _157
REMARK   65  A    between atoms: _160  and  _162
REMARK   66  A    between atoms: _162  and  _163
REMARK   67  A    between atoms: _162  and  _165
REMARK   68  A    between atoms: _165  and  _166
REMARK   69  A    between atoms: _171  and  _173
REMARK   70  A    between atoms: _173  and  _174
REMARK   71  A    between atoms: _173  and  _176
REMARK   72  A    between atoms: _176  and  _177
REMARK   73  A    between atoms: _177  and  _178
REMARK   74  A    between atoms: _183  and  _185
REMARK   75  A    between atoms: _185  and  _186
REMARK   76  A    between atoms: _185  and  _188
REMARK   77  A    between atoms: _188  and  _189
REMARK   78  A    between atoms: _195  and  _197
REMARK   79  A    between atoms: _197  and  _198
REMARK   80  A    between atoms: _197  and  _200
REMARK   81  A    between atoms: _200  and  _201
REMARK   82  A    between atoms: _206  and  _207
REMARK   83  A    between atoms: _209  and  _211
REMARK   84  A    between atoms: _211  and  _212
REMARK   85  A    between atoms: _211  and  _214
REMARK   86  A    between atoms: _214  and  _215
REMARK   87  A    between atoms: _220  and  _221
REMARK   88  A    between atoms: _223  and  _225
REMARK   89  A    between atoms: _225  and  _226
REMARK   90  A    between atoms: _225  and  _228
REMARK   91  A    between atoms: _228  and  _229
REMARK   92  A    between atoms: _234  and  _236
REMARK   93  A    between atoms: _236  and  _237
REMARK   94  A    between atoms: _236  and  _239
REMARK   95  A    between atoms: _239  and  _240
REMARK   96  A    between atoms: _246  and  _248
REMARK   97  A    between atoms: _248  and  _249
REMARK   98  A    between atoms: _251  and  _253
REMARK   99  A    between atoms: _253  and  _254
REMARK  100  A    between atoms: _253  and  _256
REMARK  101  A    between atoms: _259  and  _261
REMARK  102  A    between atoms: _261  and  _262
REMARK  103  A    between atoms: _261  and  _264
REMARK  104  A    between atoms: _264  and  _265
REMARK  105  A    between atoms: _268  and  _270
REMARK  106  A    between atoms: _270  and  _271
REMARK  107  A    between atoms: _270  and  _273
REMARK  108  A    between atoms: _273  and  _274
REMARK  109  A    between atoms: _277  and  _279
REMARK  110  A    between atoms: _279  and  _280
REMARK  111  A    between atoms: _279  and  _282
REMARK  112  A    between atoms: _285  and  _287
REMARK  113  A    between atoms: _287  and  _288
REMARK  114  A    between atoms: _287  and  _290
REMARK  115  A    between atoms: _293  and  _295
REMARK  116  A    between atoms: _295  and  _296
REMARK  117  A    between atoms: _295  and  _298
REMARK  118  A    between atoms: _298  and  _299
REMARK  119  A    between atoms: _302  and  _304
REMARK  120  A    between atoms: _304  and  _305
REMARK  121  A    between atoms: _304  and  _307
REMARK  122  A    between atoms: _307  and  _308
REMARK  123  A    between atoms: _311  and  _313
REMARK  124  A    between atoms: _313  and  _314
REMARK  125  A    between atoms: _313  and  _316
REMARK  126  A    between atoms: _316  and  _317
REMARK  127  A    between atoms: _323  and  _325
REMARK  128  A    between atoms: _325  and  _326
REMARK  129  A    between atoms: _325  and  _328
REMARK  130  A    between atoms: _328  and  _329
REMARK  131  A    between atoms: _335  and  _337
REMARK  132  A    between atoms: _337  and  _338
REMARK  133  A    between atoms: _340  and  _342
REMARK  134  A    between atoms: _342  and  _343
REMARK  135  A    between atoms: _342  and  _345
REMARK  136  A    between atoms: _345  and  _346
REMARK  137  A    between atoms: _346  and  _347
REMARK  138  A    between atoms: _350  and  _352
REMARK  139  A    between atoms: _352  and  _353
REMARK  140  A    between atoms: _352  and  _355
REMARK  141  A    between atoms: _355  and  _356
REMARK  142  A    between atoms: _356  and  _357
REMARK  143  A    between atoms: _357  and  _358
REMARK  144  A    between atoms: _358  and  _359
REMARK  145  A    between atoms: _363  and  _365
REMARK  146  A    between atoms: _365  and  _366
REMARK  147  A    between atoms: _365  and  _368
REMARK  148  A    between atoms: _368  and  _369
REMARK  149  A    between atoms: _372  and  _374
REMARK  150  A    between atoms: _374  and  _375
REMARK  151  A    between atoms: _374  and  _377
REMARK  152  A    between atoms: _377  and  _378
REMARK  153  A    between atoms: _383  and  _384
REMARK  154  A    between atoms: _386  and  _388
REMARK  155  A    between atoms: _388  and  _389
REMARK  156  A    between atoms: _388  and  _391
REMARK  157  A    between atoms: _391  and  _392
REMARK  158  A    between atoms: _392  and  _393
REMARK  159  A    between atoms: _398  and  _400
REMARK  160  A    between atoms: _400  and  _401
REMARK  161  A    between atoms: _400  and  _403
REMARK  162  A    between atoms: _403  and  _404
REMARK  163  A    between atoms: _407  and  _409
REMARK  164  A    between atoms: _409  and  _410
REMARK  165  A    between atoms: _409  and  _412
REMARK  166  A    between atoms: _412  and  _413
REMARK  167  A    between atoms: _416  and  _418
REMARK  168  A    between atoms: _418  and  _419
REMARK  169  A    between atoms: _418  and  _421
REMARK  170  A    between atoms: _424  and  _426
REMARK  171  A    between atoms: _426  and  _427
REMARK  172  A    between atoms: _429  and  _431
REMARK  173  A    between atoms: _431  and  _432
REMARK  174  A    between atoms: _431  and  _434
REMARK  175  A    between atoms: _438  and  _439
REMARK  176  A    between atoms: _444  and  _446
REMARK  177  A    between atoms: _446  and  _447
REMARK  178  A    between atoms: _446  and  _449
REMARK  179  A    between atoms: _449  and  _450
REMARK  180  A    between atoms: _453  and  _455
REMARK  181  A    between atoms: _455  and  _456
REMARK  182  A    between atoms: _455  and  _458
REMARK  183  A    between atoms: _461  and  _463
REMARK  184  A    between atoms: _463  and  _464
REMARK  185  A    between atoms: _463  and  _466
REMARK  186  A    between atoms: _466  and  _467
REMARK  187  A    between atoms: _467  and  _468
REMARK  188  A    between atoms: _468  and  _469
REMARK  189  A    between atoms: _478  and  _480
REMARK  190  A    between atoms: _480  and  _481
REMARK  191  A    between atoms: _480  and  _483
REMARK  192  A    between atoms: _483  and  _484
REMARK  193  A    between atoms: _484  and  _485
REMARK  194  A    between atoms: _488  and  _490
REMARK  195  A    between atoms: _490  and  _491
REMARK  196  A    between atoms: _490  and  _493
REMARK  197  A    between atoms: _493  and  _494
REMARK  198  A    between atoms: _497  and  _499
REMARK  199  A    between atoms: _499  and  _500
REMARK  200  A    between atoms: _503  and  _505
REMARK  201  A    between atoms: _505  and  _506
REMARK  202  A    between atoms: _505  and  _508
REMARK  203  A    between atoms: _508  and  _509
REMARK  204  A    between atoms: _509  and  _510
REMARK  205  A    between atoms: _512  and  _514
REMARK  206  A    between atoms: _514  and  _515
REMARK  207  A    between atoms: _514  and  _517
REMARK  208  A    between atoms: _517  and  _518
REMARK  209  A    between atoms: _520  and  _522
REMARK  210  A    between atoms: _522  and  _523
REMARK  211  A    between atoms: _522  and  _525
REMARK  212  A    between atoms: _525  and  _526
REMARK  213  A    between atoms: _528  and  _530
REMARK  214  A    between atoms: _530  and  _531
REMARK  215  A    between atoms: _530  and  _533
REMARK  216  A    between atoms: _533  and  _534
REMARK  217  A    between atoms: _534  and  _535
REMARK  218  A    between atoms: _535  and  _536
REMARK  219  A    between atoms: _545  and  _547
REMARK  220  A    between atoms: _547  and  _548
REMARK  221  A    between atoms: _547  and  _550
REMARK  222  A    between atoms: _550  and  _551
REMARK  223  A    between atoms: _556  and  _558
REMARK  224  A    between atoms: _558  and  _559
REMARK  225  A    between atoms: _558  and  _561
REMARK  226  A    between atoms: _561  and  _562
REMARK                            x       y       z     vdW  Elec       q    Type
REMARK                         _______ _______ _______ _____ _____    ______ ____
ROOT
ATOM      1  C   HIS A   1      21.059   2.665  11.354  0.00  0.00    +0.239 C 
ATOM      2  O   HIS A   1      20.278   3.590  11.583  0.00  0.00    -0.274 OA
ATOM      3  N   PHE A   2      20.641   1.438  11.023  0.00  0.00    -0.298 N 
ATOM      4  H   PHE A   2      21.336   0.676  10.891  0.00  0.00    +0.150 HD
ENDROOT
BRANCH   1   5
ATOM      5  CA  HIS A   1      22.590   2.901  11.402  0.00  0.00    +0.151 C 
BRANCH   5   6
ATOM      6  N   HIS A   1      23.276   1.904  12.216  0.00  0.00    -0.238 NA
ATOM      7  H   HIS A   1      24.019   1.317  11.786  0.00  0.00    +0.142 HD
ENDBRANCH   5   6
BRANCH   5   8
ATOM      8  CB  HIS A   1      23.141   2.907   9.967  0.00  0.00    +0.074 C 
BRANCH   8   9
ATOM      9  CG  HIS A   1      22.300   3.713   9.011  0.00  0.00    +0.082 A 
ATOM     10  ND1 HIS A   1      22.132   5.074   9.129  0.00  0.00    -0.227 NA
ATOM     11  CE1 HIS A   1      21.316   5.506   8.183  0.00  0.00    +0.199 A 
ATOM     12  NE2 HIS A   1      20.951   4.472   7.452  0.00  0.00    -0.221 NA
ATOM     13  CD2 HIS A   1      21.534   3.337   7.961  0.00  0.00    +0.115 A 
ENDBRANCH   8   9
ENDBRANCH   5   8
ENDBRANCH   1   5
BRANCH   3  14
ATOM     14  CA  PHE A   2      19.199   1.153  10.842  0.00  0.00    +0.141 C 
BRANCH  14  15
ATOM     15  C   PHE A   2      18.411   1.082  12.133  0.00  0.00    +0.227 C 
ATOM     16  O   PHE A   2      17.207   1.397  12.141  0.00  0.00    -0.286 OA
ENDBRANCH  14  15
BRANCH  14  17
ATOM     17  CB  PHE A   2      18.955  -0.078   9.955  0.00  0.00    +0.054 C 
BRANCH  17  18
ATOM     18  CG  PHE A   2      19.272   0.179   8.515  0.00  0.00    -0.020 A 
ATOM     19  CD2 PHE A   2      20.343  -0.482   7.886  0.00  0.00    -0.004 A 
ATOM     20  CE2 PHE A   2      20.637  -0.227   6.547  0.00  0.00    -0.000 A 
ATOM     21  CZ  PHE A   2      19.889   0.727   5.833  0.00  0.00    -0.000 A 
ATOM     22  CE1 PHE A   2      18.839   1.381   6.450  0.00  0.00    -0.000 A 
ATOM     23  CD1 PHE A   2      18.550   1.117   7.800  0.00  0.00    -0.004 A 
ENDBRANCH  17  18
ENDBRANCH  14  17
ENDBRANCH   3  14
TORSDOF 8
REMARK  Name = ../refined-set-2016/3cow/3cow_pocket.pdb
REMARK  226 active torsions:
REMARK  status: ('A' for Active; 'I' for Inactive)
REMARK    1  A    between atoms: _1  and  _3
REMARK    2  A    between atoms: _3  and  _4
REMARK    3  A    between atoms: _3  and  _6
REMARK    4  A    between atoms: _10  and  _11
REMARK    5  A    between atoms: _16  and  _18
REMARK    6  A    between atoms: _18  and  _19
REMARK    7  A    between atoms: _18  and  _21
REMARK    8  A    between atoms: _21  and  _22
REMARK    9  A    between atoms: _25  and  _27
REMARK   10  A    between atoms: _27  and  _28
REMARK   11  A    between atoms: _27  and  _30
REMARK   12  A    between atoms: _30  and  _31
REMARK   13  A    between atoms: _31  and  _32
REMARK   14  A    between atoms: _34  and  _36
REMARK   15  A    between atoms: _36  and  _37
REMARK   16  A    between atoms: _39  and  _41
REMARK   17  A    between atoms: _41  and  _42
REMARK   18  A    between atoms: _45  and  _47
REMARK   19  A    between atoms: _47  and  _48
REMARK   20  A    between atoms: _47  and  _50
REMARK   21  A    between atoms: _50  and  _51
REMARK   22  A    between atoms: _54  and  _56
REMARK   23  A    between atoms: _56  and  _57
REMARK   24  A    between atoms: _56  and  _59
REMARK   25  A    between atoms: _59  and  _60
REMARK   26  A    between atoms: _65  and  _67
REMARK   27  A    between atoms: _67  and  _68
REMARK   28  A    between atoms: _67  and  _70
REMARK   29  A    between atoms: _70  and  _71
REMARK   30  A    between atoms: _71  and  _72
REMARK   31  A    between atoms: _75  and  _77
REMARK   32  A    between atoms: _77  and  _78
REMARK   33  A    between atoms: _80  and  _82
REMARK   34  A    between atoms: _82  and  _83
REMARK   35  A    between atoms: _82  and  _85
REMARK   36  A    between atoms: _85  and  _86
REMARK   37  A    between atoms: _91  and  _93
REMARK   38  A    between atoms: _93  and  _94
REMARK   39  A    between atoms: _93  and  _96
REMARK   40  A    between atoms: _96  and  _97
REMARK   41  A    between atoms: _100  and  _102
REMARK   42  A    between atoms: _102  and  _103
REMARK   43  A    between atoms: _106  and  _108
REMARK   44  A    between atoms: _108  and  _109
REMARK   45  A    between atoms: _108  and  _111
REMARK   46  A    between atoms: _111  and  _112
REMARK   47  A    between atoms: _115  and  _117
REMARK   48  A    between atoms: _117  and  _118
REMARK   49  A    between atoms: _117  and  _120
REMARK   50  A    between atoms: _123  and  _125
REMARK   51  A    between atoms: _125  and  _126
REMARK   52  A    between atoms: _125  and  _128
REMARK   53  A    between atoms: _128  and  _129
REMARK   54  A    between atoms: _131  and  _133
REMARK   55  A    between atoms: _133  and  _134
REMARK   56  A    between atoms: _133  and  _136
REMARK   57  A    between atoms: _136  and  _137
REMARK   58  A    between atoms: _140  and  _142
REMARK   59  A    between atoms: _142  and  _143
REMARK   60  A    between atoms: _142  and  _145
REMARK   61  A    between atoms: _145  and  _146
REMARK   62  A    between atoms: _152  and  _154
REMARK   63  A    between atoms: _154  and  _155
REMARK   64  A    between atoms: _154  and  _157
REMARK   65  A    between atoms: _160  and  _162
REMARK   66  A    between atoms: _162  and  _163
REMARK   67  A    between atoms: _162  and  _165
REMARK   68  A    between atoms: _165  and  _166
REMARK   69  A    between atoms: _171  and  _173
REMARK   70  A    between atoms: _173  and  _174
REMARK   71  A    between atoms: _173  and  _176
REMARK   72  A    between atoms: _176  and  _177
REMARK   73  A    between atoms: _177  and  _178
REMARK   74  A    between atoms: _183  and  _185
REMARK   75  A    between atoms: _185  and  _186
REMARK   76  A    between atoms: _185  and  _188
REMARK   77  A    between atoms: _188  and  _189
REMARK   78  A    between atoms: _195  and  _197
REMARK   79  A    between atoms: _197  and  _198
REMARK   80  A    between atoms: _197  and  _200
REMARK   81  A    between atoms: _200  and  _201
REMARK   82  A    between atoms: _206  and  _207
REMARK   83  A    between atoms: _209  and  _211
REMARK   84  A    between atoms: _211  and  _212
REMARK   85  A    between atoms: _211  and  _214
REMARK   86  A    between atoms: _214  and  _215
REMARK   87  A    between atoms: _220  and  _221
REMARK   88  A    between atoms: _223  and  _225
REMARK   89  A    between atoms: _225  and  _226
REMARK   90  A    between atoms: _225  and  _228
REMARK   91  A    between atoms: _228  and  _229
REMARK   92  A    between atoms: _234  and  _236
REMARK   93  A    between atoms: _236  and  _237
REMARK   94  A    between atoms: _236  and  _239
REMARK   95  A    between atoms: _239  and  _240
REMARK   96  A    between atoms: _246  and  _248
REMARK   97  A    between atoms: _248  and  _249
REMARK   98  A    between atoms: _251  and  _253
REMARK   99  A    between atoms: _253  and  _254
REMARK  100  A    between atoms: _253  and  _256
REMARK  101  A    between atoms: _259  and  _261
REMARK  102  A    between atoms: _261  and  _262
REMARK  103  A    between atoms: _261  and  _264
REMARK  104  A    between atoms: _264  and  _265
REMARK  105  A    between atoms: _268  and  _270
REMARK  106  A    between atoms: _270  and  _271
REMARK  107  A    between atoms: _270  and  _273
REMARK  108  A    between atoms: _273  and  _274
REMARK  109  A    between atoms: _277  and  _279
REMARK  110  A    between atoms: _279  and  _280
REMARK  111  A    between atoms: _279  and  _282
REMARK  112  A    between atoms: _285  and  _287
REMARK  113  A    between atoms: _287  and  _288
REMARK  114  A    between atoms: _287  and  _290
REMARK  115  A    between atoms: _293  and  _295
REMARK  116  A    between atoms: _295  and  _296
REMARK  117  A    between atoms: _295  and  _298
REMARK  118  A    between atoms: _298  and  _299
REMARK  119  A    between atoms: _302  and  _304
REMARK  120  A    between atoms: _304  and  _305
REMARK  121  A    between atoms: _304  and  _307
REMARK  122  A    between atoms: _307  and  _308
REMARK  123  A    between atoms: _311  and  _313
REMARK  124  A    between atoms: _313  and  _314
REMARK  125  A    between atoms: _313  and  _316
REMARK  126  A    between atoms: _316  and  _317
REMARK  127  A    between atoms: _323  and  _325
REMARK  128  A    between atoms: _325  and  _326
REMARK  129  A    between atoms: _325  and  _328
REMARK  130  A    between atoms: _328  and  _329
REMARK  131  A    between atoms: _335  and  _337
REMARK  132  A    between atoms: _337  and  _338
REMARK  133  A    between atoms: _340  and  _342
REMARK  134  A    between atoms: _342  and  _343
REMARK  135  A    between atoms: _342  and  _345
REMARK  136  A    between atoms: _345  and  _346
REMARK  137  A    between atoms: _346  and  _347
REMARK  138  A    between atoms: _350  and  _352
REMARK  139  A    between atoms: _352  and  _353
REMARK  140  A    between atoms: _352  and  _355
REMARK  141  A    between atoms: _355  and  _356
REMARK  142  A    between atoms: _356  and  _357
REMARK  143  A    between atoms: _357  and  _358
REMARK  144  A    between atoms: _358  and  _359
REMARK  145  A    between atoms: _363  and  _365
REMARK  146  A    between atoms: _365  and  _366
REMARK  147  A    between atoms: _365  and  _368
REMARK  148  A    between atoms: _368  and  _369
REMARK  149  A    between atoms: _372  and  _374
REMARK  150  A    between atoms: _374  and  _375
REMARK  151  A    between atoms: _374  and  _377
REMARK  152  A    between atoms: _377  and  _378
REMARK  153  A    between atoms: _383  and  _384
REMARK  154  A    between atoms: _386  and  _388
REMARK  155  A    between atoms: _388  and  _389
REMARK  156  A    between atoms: _388  and  _391
REMARK  157  A    between atoms: _391  and  _392
REMARK  158  A    between atoms: _392  and  _393
REMARK  159  A    between atoms: _398  and  _400
REMARK  160  A    between atoms: _400  and  _401
REMARK  161  A    between atoms: _400  and  _403
REMARK  162  A    between atoms: _403  and  _404
REMARK  163  A    between atoms: _407  and  _409
REMARK  164  A    between atoms: _409  and  _410
REMARK  165  A    between atoms: _409  and  _412
REMARK  166  A    between atoms: _412  and  _413
REMARK  167  A    between atoms: _416  and  _418
REMARK  168  A    between atoms: _418  and  _419
REMARK  169  A    between atoms: _418  and  _421
REMARK  170  A    between atoms: _424  and  _426
REMARK  171  A    between atoms: _426  and  _427
REMARK  172  A    between atoms: _429  and  _431
REMARK  173  A    between atoms: _431  and  _432
REMARK  174  A    between atoms: _431  and  _434
REMARK  175  A    between atoms: _438  and  _439
REMARK  176  A    between atoms: _444  and  _446
REMARK  177  A    between atoms: _446  and  _447
REMARK  178  A    between atoms: _446  and  _449
REMARK  179  A    between atoms: _449  and  _450
REMARK  180  A    between atoms: _453  and  _455
REMARK  181  A    between atoms: _455  and  _456
REMARK  182  A    between atoms: _455  and  _458
REMARK  183  A    between atoms: _461  and  _463
REMARK  184  A    between atoms: _463  and  _464
REMARK  185  A    between atoms: _463  and  _466
REMARK  186  A    between atoms: _466  and  _467
REMARK  187  A    between atoms: _467  and  _468
REMARK  188  A    between atoms: _468  and  _469
REMARK  189  A    between atoms: _478  and  _480
REMARK  190  A    between atoms: _480  and  _481
REMARK  191  A    between atoms: _480  and  _483
REMARK  192  A    between atoms: _483  and  _484
REMARK  193  A    between atoms: _484  and  _485
REMARK  194  A    between atoms: _488  and  _490
REMARK  195  A    between atoms: _490  and  _491
REMARK  196  A    between atoms: _490  and  _493
REMARK  197  A    between atoms: _493  and  _494
REMARK  198  A    between atoms: _497  and  _499
REMARK  199  A    between atoms: _499  and  _500
REMARK  200  A    between atoms: _503  and  _505
REMARK  201  A    between atoms: _505  and  _506
REMARK  202  A    between atoms: _505  and  _508
REMARK  203  A    between atoms: _508  and  _509
REMARK  204  A    between atoms: _509  and  _510
REMARK  205  A    between atoms: _512  and  _514
REMARK  206  A    between atoms: _514  and  _515
REMARK  207  A    between atoms: _514  and  _517
REMARK  208  A    between atoms: _517  and  _518
REMARK  209  A    between atoms: _520  and  _522
REMARK  210  A    between atoms: _522  and  _523
REMARK  211  A    between atoms: _522  and  _525
REMARK  212  A    between atoms: _525  and  _526
REMARK  213  A    between atoms: _528  and  _530
REMARK  214  A    between atoms: _530  and  _531
REMARK  215  A    between atoms: _530  and  _533
REMARK  216  A    between atoms: _533  and  _534
REMARK  217  A    between atoms: _534  and  _535
REMARK  218  A    between atoms: _535  and  _536
REMARK  219  A    between atoms: _545  and  _547
REMARK  220  A    between atoms: _547  and  _548
REMARK  221  A    between atoms: _547  and  _550
REMARK  222  A    between atoms: _550  and  _551
REMARK  223  A    between atoms: _556  and  _558
REMARK  224  A    between atoms: _558  and  _559
REMARK  225  A    between atoms: _558  and  _561
REMARK  226  A    between atoms: _561  and  _562
REMARK                            x       y       z     vdW  Elec       q    Type
REMARK                         _______ _______ _______ _____ _____    ______ ____
ROOT
ATOM      1  CA  THR A   4      13.725   4.076  16.210  0.00  0.00    +0.176 C 
ENDROOT
BRANCH   1   3
ATOM      2  C   LEU A   3      13.209   3.076  14.059  0.00  0.00    +0.241 C 
ATOM      3  N   THR A   4      14.113   3.400  14.967  0.00  0.00    -0.295 N 
ATOM      4  H   THR A   4      15.114   3.173  14.798  0.00  0.00    +0.150 HD
ATOM      5  O   LEU A   3      11.988   3.236  14.218  0.00  0.00    -0.273 OA
BRANCH   2   6
ATOM      6  CA  LEU A   3      13.768   2.463  12.771  0.00  0.00    +0.149 C 
BRANCH   6   8
ATOM      7  C   VAL A   2      15.003   4.363  11.937  0.00  0.00    +0.241 C 
ATOM      8  N   LEU A   3      15.007   3.084  12.322  0.00  0.00    -0.297 N 
ATOM      9  H   LEU A   3      15.890   2.534  12.301  0.00  0.00    +0.150 HD
ATOM     10  O   VAL A   2      13.967   5.059  11.980  0.00  0.00    -0.273 OA
BRANCH   7  11
ATOM     11  CA  VAL A   2      16.338   4.930  11.421  0.00  0.00    +0.148 C 
BRANCH  11  14
ATOM     12  C   GLY A   1      17.463   5.133  13.589  0.00  0.00    +0.240 C 
ATOM     13  O   GLY A   1      16.560   5.864  14.049  0.00  0.00    -0.274 OA
ATOM     14  N   VAL A   2      17.413   4.616  12.369  0.00  0.00    -0.297 N 
ATOM     15  H   VAL A   2      18.165   3.962  12.072  0.00  0.00    +0.150 HD
BRANCH  12  16
ATOM     16  CA  GLY A   1      18.692   4.736  14.422  0.00  0.00    +0.169 C 
BRANCH  16  17
ATOM     17  N   GLY A   1      19.009   3.276  14.425  0.00  0.00    -0.236 NA
ATOM     18  H   GLY A   1      19.960   2.959  14.148  0.00  0.00    +0.142 HD
ENDBRANCH  16  17
ENDBRANCH  12  16
ENDBRANCH  11  14
BRANCH  11  19
ATOM     19  CB  VAL A   2      16.650   4.306  10.026  0.00  0.00    +0.027 C 
ATOM     20  CG2 VAL A   2      17.934   4.943   9.365  0.00  0.00    +0.002 C 
ATOM     21  CG1 VAL A   2      15.384   4.352   9.098  0.00  0.00    +0.002 C 
ENDBRANCH  11  19
ENDBRANCH   7  11
ENDBRANCH   6   8
BRANCH   6  22
ATOM     22  CB  LEU A   3      13.951   0.958  12.912  0.00  0.00    +0.029 C 
BRANCH  22  23
ATOM     23  CG  LEU A   3      13.595   0.175  11.634  0.00  0.00    +0.002 C 
ATOM     24  CD2 LEU A   3      13.770  -1.382  11.865  0.00  0.00    +0.000 C 
ATOM     25  CD1 LEU A   3      14.356   0.664  10.412  0.00  0.00    +0.000 C 
ENDBRANCH  22  23
ENDBRANCH   6  22
ENDBRANCH   2   6
ENDBRANCH   1   3
BRANCH   1  26
ATOM     26  C   THR A   4      13.048   5.419  15.905  0.00  0.00    +0.243 C 
ATOM     27  O   THR A   4      11.976   5.709  16.455  0.00  0.00    -0.273 OA
ATOM     28  N   VAL A   5      13.666   6.253  15.070  0.00  0.00    -0.297 N 
ATOM     29  H   VAL A   5      14.553   5.976  14.603  0.00  0.00    +0.150 HD
BRANCH  28  30
ATOM     30  CA  VAL A   5      13.069   7.569  14.823  0.00  0.00    +0.149 C 
BRANCH  30  31
ATOM     31  C   VAL A   5      11.770   7.468  14.005  0.00  0.00    +0.241 C 
ATOM     32  O   VAL A   5      10.819   8.218  14.242  0.00  0.00    -0.273 OA
ATOM     33  N   VAL A   6      11.696   6.502  13.091  0.00  0.00    -0.297 N 
ATOM     34  H   VAL A   6      12.490   5.846  12.947  0.00  0.00    +0.150 HD
BRANCH  33  35
ATOM     35  CA  VAL A   6      10.475   6.383  12.293  0.00  0.00    +0.149 C 
BRANCH  35  36
ATOM     36  C   VAL A   6       9.338   5.864  13.190  0.00  0.00    +0.241 C 
ATOM     37  N   LEU A   7       9.659   4.937  14.110  0.00  0.00    -0.298 N 
ATOM     38  H   LEU A   7      10.629   4.568  14.179  0.00  0.00    +0.150 HD
ATOM     39  O   VAL A   6       8.189   6.334  13.090  0.00  0.00    -0.273 OA
BRANCH  37  40
ATOM     40  CA  LEU A   7       8.617   4.465  15.005  0.00  0.00    +0.137 C 
BRANCH  40  41
ATOM     41  C   LEU A   7       8.074   5.667  15.813  0.00  0.00    +0.227 C 
ATOM     42  O   LEU A   7       6.875   5.802  15.976  0.00  0.00    -0.286 OA
ENDBRANCH  40  41
BRANCH  40  43
ATOM     43  CB  LEU A   7       9.145   3.369  15.928  0.00  0.00    +0.028 C 
BRANCH  43  44
ATOM     44  CG  LEU A   7       8.180   2.876  16.994  0.00  0.00    +0.002 C 
ATOM     45  CD2 LEU A   7       8.901   1.936  17.957  0.00  0.00    +0.000 C 
ATOM     46  CD1 LEU A   7       6.952   2.158  16.337  0.00  0.00    +0.000 C 
ENDBRANCH  43  44
ENDBRANCH  40  43
ENDBRANCH  37  40
ENDBRANCH  35  36
BRANCH  35  47
ATOM     47  CB  VAL A   6      10.681   5.509  11.024  0.00  0.00    +0.027 C 
ATOM     48  CG2 VAL A   6       9.275   5.165  10.389  0.00  0.00    +0.002 C 
ATOM     49  CG1 VAL A   6      11.585   6.223  10.047  0.00  0.00    +0.002 C 
ENDBRANCH  35  47
ENDBRANCH  33  35
ENDBRANCH  30  31
BRANCH  30  50
ATOM     50  CB  VAL A   5      14.089   8.591  14.208  0.00  0.00    +0.027 C 
ATOM     51  CG2 VAL A   5      13.628  10.068  14.512  0.00  0.00    +0.002 C 
ATOM     52  CG1 VAL A   5      14.309   8.329  12.674  0.00  0.00    +0.002 C 
ENDBRANCH  30  50
ENDBRANCH  28  30
ENDBRANCH   1  26
BRANCH   1  53
ATOM     53  CB  THR A   4      14.924   4.213  17.187  0.00  0.00    +0.137 C 
ATOM     54  CG2 THR A   4      14.515   4.998  18.495  0.00  0.00    +0.034 C 
BRANCH  53  55
ATOM     55  OG1 THR A   4      15.375   2.888  17.555  0.00  0.00    -0.382 OA
ATOM     56  HG1 THR A   4      15.657   2.399  16.742  0.00  0.00    +0.210 HD
ENDBRANCH  53  55
ENDBRANCH   1  53
TORSDOF 23
REMARK  Name = ../refined-set-2016/3cow/3cow_pocket.pdb
REMARK  226 active torsions:
REMARK  status: ('A' for Active; 'I' for Inactive)
REMARK    1  A    between atoms: _1  and  _3
REMARK    2  A    between atoms: _3  and  _4
REMARK    3  A    between atoms: _3  and  _6
REMARK    4  A    between atoms: _10  and  _11
REMARK    5  A    between atoms: _16  and  _18
REMARK    6  A    between atoms: _18  and  _19
REMARK    7  A    between atoms: _18  and  _21
REMARK    8  A    between atoms: _21  and  _22
REMARK    9  A    between atoms: _25  and  _27
REMARK   10  A    between atoms: _27  and  _28
REMARK   11  A    between atoms: _27  and  _30
REMARK   12  A    between atoms: _30  and  _31
REMARK   13  A    between atoms: _31  and  _32
REMARK   14  A    between atoms: _34  and  _36
REMARK   15  A    between atoms: _36  and  _37
REMARK   16  A    between atoms: _39  and  _41
REMARK   17  A    between atoms: _41  and  _42
REMARK   18  A    between atoms: _45  and  _47
REMARK   19  A    between atoms: _47  and  _48
REMARK   20  A    between atoms: _47  and  _50
REMARK   21  A    between atoms: _50  and  _51
REMARK   22  A    between atoms: _54  and  _56
REMARK   23  A    between atoms: _56  and  _57
REMARK   24  A    between atoms: _56  and  _59
REMARK   25  A    between atoms: _59  and  _60
REMARK   26  A    between atoms: _65  and  _67
REMARK   27  A    between atoms: _67  and  _68
REMARK   28  A    between atoms: _67  and  _70
REMARK   29  A    between atoms: _70  and  _71
REMARK   30  A    between atoms: _71  and  _72
REMARK   31  A    between atoms: _75  and  _77
REMARK   32  A    between atoms: _77  and  _78
REMARK   33  A    between atoms: _80  and  _82
REMARK   34  A    between atoms: _82  and  _83
REMARK   35  A    between atoms: _82  and  _85
REMARK   36  A    between atoms: _85  and  _86
REMARK   37  A    between atoms: _91  and  _93
REMARK   38  A    between atoms: _93  and  _94
REMARK   39  A    between atoms: _93  and  _96
REMARK   40  A    between atoms: _96  and  _97
REMARK   41  A    between atoms: _100  and  _102
REMARK   42  A    between atoms: _102  and  _103
REMARK   43  A    between atoms: _106  and  _108
REMARK   44  A    between atoms: _108  and  _109
REMARK   45  A    between atoms: _108  and  _111
REMARK   46  A    between atoms: _111  and  _112
REMARK   47  A    between atoms: _115  and  _117
REMARK   48  A    between atoms: _117  and  _118
REMARK   49  A    between atoms: _117  and  _120
REMARK   50  A    between atoms: _123  and  _125
REMARK   51  A    between atoms: _125  and  _126
REMARK   52  A    between atoms: _125  and  _128
REMARK   53  A    between atoms: _128  and  _129
REMARK   54  A    between atoms: _131  and  _133
REMARK   55  A    between atoms: _133  and  _134
REMARK   56  A    between atoms: _133  and  _136
REMARK   57  A    between atoms: _136  and  _137
REMARK   58  A    between atoms: _140  and  _142
REMARK   59  A    between atoms: _142  and  _143
REMARK   60  A    between atoms: _142  and  _145
REMARK   61  A    between atoms: _145  and  _146
REMARK   62  A    between atoms: _152  and  _154
REMARK   63  A    between atoms: _154  and  _155
REMARK   64  A    between atoms: _154  and  _157
REMARK   65  A    between atoms: _160  and  _162
REMARK   66  A    between atoms: _162  and  _163
REMARK   67  A    between atoms: _162  and  _165
REMARK   68  A    between atoms: _165  and  _166
REMARK   69  A    between atoms: _171  and  _173
REMARK   70  A    between atoms: _173  and  _174
REMARK   71  A    between atoms: _173  and  _176
REMARK   72  A    between atoms: _176  and  _177
REMARK   73  A    between atoms: _177  and  _178
REMARK   74  A    between atoms: _183  and  _185
REMARK   75  A    between atoms: _185  and  _186
REMARK   76  A    between atoms: _185  and  _188
REMARK   77  A    between atoms: _188  and  _189
REMARK   78  A    between atoms: _195  and  _197
REMARK   79  A    between atoms: _197  and  _198
REMARK   80  A    between atoms: _197  and  _200
REMARK   81  A    between atoms: _200  and  _201
REMARK   82  A    between atoms: _206  and  _207
REMARK   83  A    between atoms: _209  and  _211
REMARK   84  A    between atoms: _211  and  _212
REMARK   85  A    between atoms: _211  and  _214
REMARK   86  A    between atoms: _214  and  _215
REMARK   87  A    between atoms: _220  and  _221
REMARK   88  A    between atoms: _223  and  _225
REMARK   89  A    between atoms: _225  and  _226
REMARK   90  A    between atoms: _225  and  _228
REMARK   91  A    between atoms: _228  and  _229
REMARK   92  A    between atoms: _234  and  _236
REMARK   93  A    between atoms: _236  and  _237
REMARK   94  A    between atoms: _236  and  _239
REMARK   95  A    between atoms: _239  and  _240
REMARK   96  A    between atoms: _246  and  _248
REMARK   97  A    between atoms: _248  and  _249
REMARK   98  A    between atoms: _251  and  _253
REMARK   99  A    between atoms: _253  and  _254
REMARK  100  A    between atoms: _253  and  _256
REMARK  101  A    between atoms: _259  and  _261
REMARK  102  A    between atoms: _261  and  _262
REMARK  103  A    between atoms: _261  and  _264
REMARK  104  A    between atoms: _264  and  _265
REMARK  105  A    between atoms: _268  and  _270
REMARK  106  A    between atoms: _270  and  _271
REMARK  107  A    between atoms: _270  and  _273
REMARK  108  A    between atoms: _273  and  _274
REMARK  109  A    between atoms: _277  and  _279
REMARK  110  A    between atoms: _279  and  _280
REMARK  111  A    between atoms: _279  and  _282
REMARK  112  A    between atoms: _285  and  _287
REMARK  113  A    between atoms: _287  and  _288
REMARK  114  A    between atoms: _287  and  _290
REMARK  115  A    between atoms: _293  and  _295
REMARK  116  A    between atoms: _295  and  _296
REMARK  117  A    between atoms: _295  and  _298
REMARK  118  A    between atoms: _298  and  _299
REMARK  119  A    between atoms: _302  and  _304
REMARK  120  A    between atoms: _304  and  _305
REMARK  121  A    between atoms: _304  and  _307
REMARK  122  A    between atoms: _307  and  _308
REMARK  123  A    between atoms: _311  and  _313
REMARK  124  A    between atoms: _313  and  _314
REMARK  125  A    between atoms: _313  and  _316
REMARK  126  A    between atoms: _316  and  _317
REMARK  127  A    between atoms: _323  and  _325
REMARK  128  A    between atoms: _325  and  _326
REMARK  129  A    between atoms: _325  and  _328
REMARK  130  A    between atoms: _328  and  _329
REMARK  131  A    between atoms: _335  and  _337
REMARK  132  A    between atoms: _337  and  _338
REMARK  133  A    between atoms: _340  and  _342
REMARK  134  A    between atoms: _342  and  _343
REMARK  135  A    between atoms: _342  and  _345
REMARK  136  A    between atoms: _345  and  _346
REMARK  137  A    between atoms: _346  and  _347
REMARK  138  A    between atoms: _350  and  _352
REMARK  139  A    between atoms: _352  and  _353
REMARK  140  A    between atoms: _352  and  _355
REMARK  141  A    between atoms: _355  and  _356
REMARK  142  A    between atoms: _356  and  _357
REMARK  143  A    between atoms: _357  and  _358
REMARK  144  A    between atoms: _358  and  _359
REMARK  145  A    between atoms: _363  and  _365
REMARK  146  A    between atoms: _365  and  _366
REMARK  147  A    between atoms: _365  and  _368
REMARK  148  A    between atoms: _368  and  _369
REMARK  149  A    between atoms: _372  and  _374
REMARK  150  A    between atoms: _374  and  _375
REMARK  151  A    between atoms: _374  and  _377
REMARK  152  A    between atoms: _377  and  _378
REMARK  153  A    between atoms: _383  and  _384
REMARK  154  A    between atoms: _386  and  _388
REMARK  155  A    between atoms: _388  and  _389
REMARK  156  A    between atoms: _388  and  _391
REMARK  157  A    between atoms: _391  and  _392
REMARK  158  A    between atoms: _392  and  _393
REMARK  159  A    between atoms: _398  and  _400
REMARK  160  A    between atoms: _400  and  _401
REMARK  161  A    between atoms: _400  and  _403
REMARK  162  A    between atoms: _403  and  _404
REMARK  163  A    between atoms: _407  and  _409
REMARK  164  A    between atoms: _409  and  _410
REMARK  165  A    between atoms: _409  and  _412
REMARK  166  A    between atoms: _412  and  _413
REMARK  167  A    between atoms: _416  and  _418
REMARK  168  A    between atoms: _418  and  _419
REMARK  169  A    between atoms: _418  and  _421
REMARK  170  A    between atoms: _424  and  _426
REMARK  171  A    between atoms: _426  and  _427
REMARK  172  A    between atoms: _429  and  _431
REMARK  173  A    between atoms: _431  and  _432
REMARK  174  A    between atoms: _431  and  _434
REMARK  175  A    between atoms: _438  and  _439
REMARK  176  A    between atoms: _444  and  _446
REMARK  177  A    between atoms: _446  and  _447
REMARK  178  A    between atoms: _446  and  _449
REMARK  179  A    between atoms: _449  and  _450
REMARK  180  A    between atoms: _453  and  _455
REMARK  181  A    between atoms: _455  and  _456
REMARK  182  A    between atoms: _455  and  _458
REMARK  183  A    between atoms: _461  and  _463
REMARK  184  A    between atoms: _463  and  _464
REMARK  185  A    between atoms: _463  and  _466
REMARK  186  A    between atoms: _466  and  _467
REMARK  187  A    between atoms: _467  and  _468
REMARK  188  A    between atoms: _468  and  _469
REMARK  189  A    between atoms: _478  and  _480
REMARK  190  A    between atoms: _480  and  _481
REMARK  191  A    between atoms: _480  and  _483
REMARK  192  A    between atoms: _483  and  _484
REMARK  193  A    between atoms: _484  and  _485
REMARK  194  A    between atoms: _488  and  _490
REMARK  195  A    between atoms: _490  and  _491
REMARK  196  A    between atoms: _490  and  _493
REMARK  197  A    between atoms: _493  and  _494
REMARK  198  A    between atoms: _497  and  _499
REMARK  199  A    between atoms: _499  and  _500
REMARK  200  A    between atoms: _503  and  _505
REMARK  201  A    between atoms: _505  and  _506
REMARK  202  A    between atoms: _505  and  _508
REMARK  203  A    between atoms: _508  and  _509
REMARK  204  A    between atoms: _509  and  _510
REMARK  205  A    between atoms: _512  and  _514
REMARK  206  A    between atoms: _514  and  _515
REMARK  207  A    between atoms: _514  and  _517
REMARK  208  A    between atoms: _517  and  _518
REMARK  209  A    between atoms: _520  and  _522
REMARK  210  A    between atoms: _522  and  _523
REMARK  211  A    between atoms: _522  and  _525
REMARK  212  A    between atoms: _525  and  _526
REMARK  213  A    between atoms: _528  and  _530
REMARK  214  A    between atoms: _530  and  _531
REMARK  215  A    between atoms: _530  and  _533
REMARK  216  A    between atoms: _533  and  _534
REMARK  217  A    between atoms: _534  and  _535
REMARK  218  A    between atoms: _535  and  _536
REMARK  219  A    between atoms: _545  and  _547
REMARK  220  A    between atoms: _547  and  _548
REMARK  221  A    between atoms: _547  and  _550
REMARK  222  A    between atoms: _550  and  _551
REMARK  223  A    between atoms: _556  and  _558
REMARK  224  A    between atoms: _558  and  _559
REMARK  225  A    between atoms: _558  and  _561
REMARK  226  A    between atoms: _561  and  _562
REMARK                            x       y       z     vdW  Elec       q    Type
REMARK                         _______ _______ _______ _____ _____    ______ ____
ROOT
ATOM      1  CA  LEU A   1       7.384   9.785  14.179  0.00  0.00    +0.133 C 
ENDROOT
BRANCH   1   2
ATOM      2  N   LEU A   1       8.102   8.880  15.090  0.00  0.00    -0.239 NA
ATOM      3  H   LEU A   1       8.986   8.442  14.762  0.00  0.00    +0.142 HD
ENDBRANCH   1   2
BRANCH   1   4
ATOM      4  C   LEU A   1       5.999   9.220  13.922  0.00  0.00    +0.224 C 
ATOM      5  O   LEU A   1       5.021   9.964  13.946  0.00  0.00    -0.287 OA
ENDBRANCH   1   4
BRANCH   1   6
ATOM      6  CB  LEU A   1       8.138   9.969  12.857  0.00  0.00    +0.025 C 
BRANCH   6   7
ATOM      7  CG  LEU A   1       9.441  10.766  13.025  0.00  0.00    +0.002 C 
ATOM      8  CD2 LEU A   1       9.112  12.194  13.463  0.00  0.00    +0.000 C 
ATOM      9  CD1 LEU A   1      10.190  10.772  11.714  0.00  0.00    +0.000 C 
ENDBRANCH   6   7
ENDBRANCH   1   6
TORSDOF 4
REMARK  Name = ../refined-set-2016/3cow/3cow_pocket.pdb
REMARK  226 active torsions:
REMARK  status: ('A' for Active; 'I' for Inactive)
REMARK    1  A    between atoms: _1  and  _3
REMARK    2  A    between atoms: _3  and  _4
REMARK    3  A    between atoms: _3  and  _6
REMARK    4  A    between atoms: _10  and  _11
REMARK    5  A    between atoms: _16  and  _18
REMARK    6  A    between atoms: _18  and  _19
REMARK    7  A    between atoms: _18  and  _21
REMARK    8  A    between atoms: _21  and  _22
REMARK    9  A    between atoms: _25  and  _27
REMARK   10  A    between atoms: _27  and  _28
REMARK   11  A    between atoms: _27  and  _30
REMARK   12  A    between atoms: _30  and  _31
REMARK   13  A    between atoms: _31  and  _32
REMARK   14  A    between atoms: _34  and  _36
REMARK   15  A    between atoms: _36  and  _37
REMARK   16  A    between atoms: _39  and  _41
REMARK   17  A    between atoms: _41  and  _42
REMARK   18  A    between atoms: _45  and  _47
REMARK   19  A    between atoms: _47  and  _48
REMARK   20  A    between atoms: _47  and  _50
REMARK   21  A    between atoms: _50  and  _51
REMARK   22  A    between atoms: _54  and  _56
REMARK   23  A    between atoms: _56  and  _57
REMARK   24  A    between atoms: _56  and  _59
REMARK   25  A    between atoms: _59  and  _60
REMARK   26  A    between atoms: _65  and  _67
REMARK   27  A    between atoms: _67  and  _68
REMARK   28  A    between atoms: _67  and  _70
REMARK   29  A    between atoms: _70  and  _71
REMARK   30  A    between atoms: _71  and  _72
REMARK   31  A    between atoms: _75  and  _77
REMARK   32  A    between atoms: _77  and  _78
REMARK   33  A    between atoms: _80  and  _82
REMARK   34  A    between atoms: _82  and  _83
REMARK   35  A    between atoms: _82  and  _85
REMARK   36  A    between atoms: _85  and  _86
REMARK   37  A    between atoms: _91  and  _93
REMARK   38  A    between atoms: _93  and  _94
REMARK   39  A    between atoms: _93  and  _96
REMARK   40  A    between atoms: _96  and  _97
REMARK   41  A    between atoms: _100  and  _102
REMARK   42  A    between atoms: _102  and  _103
REMARK   43  A    between atoms: _106  and  _108
REMARK   44  A    between atoms: _108  and  _109
REMARK   45  A    between atoms: _108  and  _111
REMARK   46  A    between atoms: _111  and  _112
REMARK   47  A    between atoms: _115  and  _117
REMARK   48  A    between atoms: _117  and  _118
REMARK   49  A    between atoms: _117  and  _120
REMARK   50  A    between atoms: _123  and  _125
REMARK   51  A    between atoms: _125  and  _126
REMARK   52  A    between atoms: _125  and  _128
REMARK   53  A    between atoms: _128  and  _129
REMARK   54  A    between atoms: _131  and  _133
REMARK   55  A    between atoms: _133  and  _134
REMARK   56  A    between atoms: _133  and  _136
REMARK   57  A    between atoms: _136  and  _137
REMARK   58  A    between atoms: _140  and  _142
REMARK   59  A    between atoms: _142  and  _143
REMARK   60  A    between atoms: _142  and  _145
REMARK   61  A    between atoms: _145  and  _146
REMARK   62  A    between atoms: _152  and  _154
REMARK   63  A    between atoms: _154  and  _155
REMARK   64  A    between atoms: _154  and  _157
REMARK   65  A    between atoms: _160  and  _162
REMARK   66  A    between atoms: _162  and  _163
REMARK   67  A    between atoms: _162  and  _165
REMARK   68  A    between atoms: _165  and  _166
REMARK   69  A    between atoms: _171  and  _173
REMARK   70  A    between atoms: _173  and  _174
REMARK   71  A    between atoms: _173  and  _176
REMARK   72  A    between atoms: _176  and  _177
REMARK   73  A    between atoms: _177  and  _178
REMARK   74  A    between atoms: _183  and  _185
REMARK   75  A    between atoms: _185  and  _186
REMARK   76  A    between atoms: _185  and  _188
REMARK   77  A    between atoms: _188  and  _189
REMARK   78  A    between atoms: _195  and  _197
REMARK   79  A    between atoms: _197  and  _198
REMARK   80  A    between atoms: _197  and  _200
REMARK   81  A    between atoms: _200  and  _201
REMARK   82  A    between atoms: _206  and  _207
REMARK   83  A    between atoms: _209  and  _211
REMARK   84  A    between atoms: _211  and  _212
REMARK   85  A    between atoms: _211  and  _214
REMARK   86  A    between atoms: _214  and  _215
REMARK   87  A    between atoms: _220  and  _221
REMARK   88  A    between atoms: _223  and  _225
REMARK   89  A    between atoms: _225  and  _226
REMARK   90  A    between atoms: _225  and  _228
REMARK   91  A    between atoms: _228  and  _229
REMARK   92  A    between atoms: _234  and  _236
REMARK   93  A    between atoms: _236  and  _237
REMARK   94  A    between atoms: _236  and  _239
REMARK   95  A    between atoms: _239  and  _240
REMARK   96  A    between atoms: _246  and  _248
REMARK   97  A    between atoms: _248  and  _249
REMARK   98  A    between atoms: _251  and  _253
REMARK   99  A    between atoms: _253  and  _254
REMARK  100  A    between atoms: _253  and  _256
REMARK  101  A    between atoms: _259  and  _261
REMARK  102  A    between atoms: _261  and  _262
REMARK  103  A    between atoms: _261  and  _264
REMARK  104  A    between atoms: _264  and  _265
REMARK  105  A    between atoms: _268  and  _270
REMARK  106  A    between atoms: _270  and  _271
REMARK  107  A    between atoms: _270  and  _273
REMARK  108  A    between atoms: _273  and  _274
REMARK  109  A    between atoms: _277  and  _279
REMARK  110  A    between atoms: _279  and  _280
REMARK  111  A    between atoms: _279  and  _282
REMARK  112  A    between atoms: _285  and  _287
REMARK  113  A    between atoms: _287  and  _288
REMARK  114  A    between atoms: _287  and  _290
REMARK  115  A    between atoms: _293  and  _295
REMARK  116  A    between atoms: _295  and  _296
REMARK  117  A    between atoms: _295  and  _298
REMARK  118  A    between atoms: _298  and  _299
REMARK  119  A    between atoms: _302  and  _304
REMARK  120  A    between atoms: _304  and  _305
REMARK  121  A    between atoms: _304  and  _307
REMARK  122  A    between atoms: _307  and  _308
REMARK  123  A    between atoms: _311  and  _313
REMARK  124  A    between atoms: _313  and  _314
REMARK  125  A    between atoms: _313  and  _316
REMARK  126  A    between atoms: _316  and  _317
REMARK  127  A    between atoms: _323  and  _325
REMARK  128  A    between atoms: _325  and  _326
REMARK  129  A    between atoms: _325  and  _328
REMARK  130  A    between atoms: _328  and  _329
REMARK  131  A    between atoms: _335  and  _337
REMARK  132  A    between atoms: _337  and  _338
REMARK  133  A    between atoms: _340  and  _342
REMARK  134  A    between atoms: _342  and  _343
REMARK  135  A    between atoms: _342  and  _345
REMARK  136  A    between atoms: _345  and  _346
REMARK  137  A    between atoms: _346  and  _347
REMARK  138  A    between atoms: _350  and  _352
REMARK  139  A    between atoms: _352  and  _353
REMARK  140  A    between atoms: _352  and  _355
REMARK  141  A    between atoms: _355  and  _356
REMARK  142  A    between atoms: _356  and  _357
REMARK  143  A    between atoms: _357  and  _358
REMARK  144  A    between atoms: _358  and  _359
REMARK  145  A    between atoms: _363  and  _365
REMARK  146  A    between atoms: _365  and  _366
REMARK  147  A    between atoms: _365  and  _368
REMARK  148  A    between atoms: _368  and  _369
REMARK  149  A    between atoms: _372  and  _374
REMARK  150  A    between atoms: _374  and  _375
REMARK  151  A    between atoms: _374  and  _377
REMARK  152  A    between atoms: _377  and  _378
REMARK  153  A    between atoms: _383  and  _384
REMARK  154  A    between atoms: _386  and  _388
REMARK  155  A    between atoms: _388  and  _389
REMARK  156  A    between atoms: _388  and  _391
REMARK  157  A    between atoms: _391  and  _392
REMARK  158  A    between atoms: _392  and  _393
REMARK  159  A    between atoms: _398  and  _400
REMARK  160  A    between atoms: _400  and  _401
REMARK  161  A    between atoms: _400  and  _403
REMARK  162  A    between atoms: _403  and  _404
REMARK  163  A    between atoms: _407  and  _409
REMARK  164  A    between atoms: _409  and  _410
REMARK  165  A    between atoms: _409  and  _412
REMARK  166  A    between atoms: _412  and  _413
REMARK  167  A    between atoms: _416  and  _418
REMARK  168  A    between atoms: _418  and  _419
REMARK  169  A    between atoms: _418  and  _421
REMARK  170  A    between atoms: _424  and  _426
REMARK  171  A    between atoms: _426  and  _427
REMARK  172  A    between atoms: _429  and  _431
REMARK  173  A    between atoms: _431  and  _432
REMARK  174  A    between atoms: _431  and  _434
REMARK  175  A    between atoms: _438  and  _439
REMARK  176  A    between atoms: _444  and  _446
REMARK  177  A    between atoms: _446  and  _447
REMARK  178  A    between atoms: _446  and  _449
REMARK  179  A    between atoms: _449  and  _450
REMARK  180  A    between atoms: _453  and  _455
REMARK  181  A    between atoms: _455  and  _456
REMARK  182  A    between atoms: _455  and  _458
REMARK  183  A    between atoms: _461  and  _463
REMARK  184  A    between atoms: _463  and  _464
REMARK  185  A    between atoms: _463  and  _466
REMARK  186  A    between atoms: _466  and  _467
REMARK  187  A    between atoms: _467  and  _468
REMARK  188  A    between atoms: _468  and  _469
REMARK  189  A    between atoms: _478  and  _480
REMARK  190  A    between atoms: _480  and  _481
REMARK  191  A    between atoms: _480  and  _483
REMARK  192  A    between atoms: _483  and  _484
REMARK  193  A    between atoms: _484  and  _485
REMARK  194  A    between atoms: _488  and  _490
REMARK  195  A    between atoms: _490  and  _491
REMARK  196  A    between atoms: _490  and  _493
REMARK  197  A    between atoms: _493  and  _494
REMARK  198  A    between atoms: _497  and  _499
REMARK  199  A    between atoms: _499  and  _500
REMARK  200  A    between atoms: _503  and  _505
REMARK  201  A    between atoms: _505  and  _506
REMARK  202  A    between atoms: _505  and  _508
REMARK  203  A    between atoms: _508  and  _509
REMARK  204  A    between atoms: _509  and  _510
REMARK  205  A    between atoms: _512  and  _514
REMARK  206  A    between atoms: _514  and  _515
REMARK  207  A    between atoms: _514  and  _517
REMARK  208  A    between atoms: _517  and  _518
REMARK  209  A    between atoms: _520  and  _522
REMARK  210  A    between atoms: _522  and  _523
REMARK  211  A    between atoms: _522  and  _525
REMARK  212  A    between atoms: _525  and  _526
REMARK  213  A    between atoms: _528  and  _530
REMARK  214  A    between atoms: _530  and  _531
REMARK  215  A    between atoms: _530  and  _533
REMARK  216  A    between atoms: _533  and  _534
REMARK  217  A    between atoms: _534  and  _535
REMARK  218  A    between atoms: _535  and  _536
REMARK  219  A    between atoms: _545  and  _547
REMARK  220  A    between atoms: _547  and  _548
REMARK  221  A    between atoms: _547  and  _550
REMARK  222  A    between atoms: _550  and  _551
REMARK  223  A    between atoms: _556  and  _558
REMARK  224  A    between atoms: _558  and  _559
REMARK  225  A    between atoms: _558  and  _561
REMARK  226  A    between atoms: _561  and  _562
REMARK                            x       y       z     vdW  Elec       q    Type
REMARK                         _______ _______ _______ _____ _____    ______ ____
ROOT
ATOM      1  C   GLU A   4      14.309   3.659  -3.559  0.00  0.00    +0.241 C 
ATOM      2  N   LYS A   5      14.697   4.949  -3.584  0.00  0.00    -0.297 N 
ATOM      3  H   LYS A   5      13.965   5.683  -3.664  0.00  0.00    +0.150 HD
ATOM      4  O   GLU A   4      15.093   2.714  -3.594  0.00  0.00    -0.273 OA
ENDROOT
BRANCH   2   5
ATOM      5  CA  LYS A   5      16.112   5.373  -3.504  0.00  0.00    +0.149 C 
BRANCH   5   6
ATOM      6  C   LYS A   5      16.835   4.656  -2.383  0.00  0.00    +0.241 C 
ATOM      7  N   ASP A   6      16.211   4.612  -1.203  0.00  0.00    -0.297 N 
ATOM      8  H   ASP A   6      15.281   5.066  -1.099  0.00  0.00    +0.150 HD
ATOM      9  O   LYS A   5      17.940   4.145  -2.581  0.00  0.00    -0.273 OA
BRANCH   7  10
ATOM     10  CA  ASP A   6      16.802   3.948  -0.076  0.00  0.00    +0.160 C 
BRANCH  10  11
ATOM     11  C   ASP A   6      16.038   2.650   0.109  0.00  0.00    +0.241 C 
ATOM     12  O   ASP A   6      15.199   2.517   0.994  0.00  0.00    -0.273 OA
ATOM     13  N   TYR A   7      16.318   1.706  -0.792  0.00  0.00    -0.298 N 
ATOM     14  H   TYR A   7      17.143   1.823  -1.415  0.00  0.00    +0.150 HD
BRANCH  13  15
ATOM     15  CA  TYR A   7      15.501   0.531  -0.917  0.00  0.00    +0.141 C 
BRANCH  15  16
ATOM     16  C   TYR A   7      15.633  -0.334   0.317  0.00  0.00    +0.227 C 
ATOM     17  O   TYR A   7      14.641  -0.830   0.801  0.00  0.00    -0.286 OA
ENDBRANCH  15  16
BRANCH  15  18
ATOM     18  CB  TYR A   7      15.888  -0.250  -2.179  0.00  0.00    +0.054 C 
BRANCH  18  19
ATOM     19  CG  TYR A   7      14.944  -1.380  -2.477  0.00  0.00    -0.020 A 
ATOM     20  CD2 TYR A   7      15.256  -2.672  -2.071  0.00  0.00    -0.001 A 
ATOM     21  CE2 TYR A   7      14.395  -3.734  -2.334  0.00  0.00    +0.036 A 
ATOM     22  CZ  TYR A   7      13.194  -3.500  -2.985  0.00  0.00    +0.134 A 
ATOM     23  CE1 TYR A   7      12.834  -2.225  -3.390  0.00  0.00    +0.036 A 
ATOM     24  CD1 TYR A   7      13.725  -1.154  -3.133  0.00  0.00    -0.001 A 
BRANCH  22  25
ATOM     25  OH  TYR A   7      12.376  -4.561  -3.236  0.00  0.00    -0.506 OA
ATOM     26  HH  TYR A   7      12.123  -4.990  -2.381  0.00  0.00    +0.292 HD
ENDBRANCH  22  25
ENDBRANCH  18  19
ENDBRANCH  15  18
ENDBRANCH  13  15
ENDBRANCH  10  11
BRANCH  10  27
ATOM     27  CB  ASP A   6      16.727   4.869   1.138  0.00  0.00    +0.143 C 
BRANCH  27  28
ATOM     28  CG  ASP A   6      17.494   6.140   0.895  0.00  0.00    +0.367 C 
ATOM     29  OD2 ASP A   6      18.728   6.098   1.028  0.00  0.00    -0.246 OA
ATOM     30  OD1 ASP A   6      16.879   7.133   0.464  0.00  0.00    -0.246 OA
ENDBRANCH  27  28
ENDBRANCH  10  27
ENDBRANCH   7  10
ENDBRANCH   5   6
BRANCH   5  31
ATOM     31  CB  LYS A   5      16.237   6.905  -3.314  0.00  0.00    +0.029 C 
BRANCH  31  32
ATOM     32  CG  LYS A   5      17.700   7.420  -3.003  0.00  0.00    +0.000 C 
BRANCH  32  33
ATOM     33  CD  LYS A   5      18.399   7.879  -4.291  0.00  0.00    -0.024 C 
BRANCH  33  34
ATOM     34  CE  LYS A   5      19.852   8.304  -4.047  0.00  0.00    -0.086 C 
BRANCH  34  35
ATOM     35  NZ  LYS A   5      20.633   7.164  -3.409  0.00  0.00    +0.380 N 
ATOM     36  HZ1 LYS A   5      20.195   6.911  -2.501  0.00  0.00    -0.089 HD
ATOM     37  HZ2 LYS A   5      21.615   7.465  -3.249  0.00  0.00    -0.089 HD
ATOM     38  HZ3 LYS A   5      20.621   6.340  -4.043  0.00  0.00    -0.089 HD
ENDBRANCH  34  35
ENDBRANCH  33  34
ENDBRANCH  32  33
ENDBRANCH  31  32
ENDBRANCH   5  31
ENDBRANCH   2   5
BRANCH   1  39
ATOM     39  CA  GLU A   4      12.795   3.393  -3.496  0.00  0.00    +0.149 C 
BRANCH  39  42
ATOM     40  C   GLY A   3      12.220   5.047  -1.819  0.00  0.00    +0.243 C 
ATOM     41  O   GLY A   3      12.921   4.494  -0.956  0.00  0.00    -0.273 OA
ATOM     42  N   GLU A   4      12.027   4.531  -3.032  0.00  0.00    -0.297 N 
ATOM     43  H   GLU A   4      11.312   4.953  -3.658  0.00  0.00    +0.150 HD
BRANCH  40  44
ATOM     44  CA  GLY A   3      11.568   6.391  -1.563  0.00  0.00    +0.176 C 
BRANCH  44  46
ATOM     45  C   PHE A   2       9.851   6.008   0.137  0.00  0.00    +0.241 C 
ATOM     46  N   GLY A   3      11.058   6.482  -0.198  0.00  0.00    -0.295 N 
ATOM     47  H   GLY A   3      11.648   6.927   0.534  0.00  0.00    +0.150 HD
ATOM     48  O   PHE A   2       9.121   5.422  -0.656  0.00  0.00    -0.273 OA
BRANCH  45  49
ATOM     49  CA  PHE A   2       9.402   6.188   1.603  0.00  0.00    +0.153 C 
BRANCH  49  52
ATOM     50  C   PHE A   1       7.398   7.387   2.400  0.00  0.00    +0.239 C 
ATOM     51  O   PHE A   1       8.033   8.148   3.138  0.00  0.00    -0.274 OA
ATOM     52  N   PHE A   2       7.956   6.426   1.665  0.00  0.00    -0.297 N 
ATOM     53  H   PHE A   2       7.332   5.811   1.105  0.00  0.00    +0.150 HD
BRANCH  50  54
ATOM     54  CA  PHE A   1       5.883   7.496   2.325  0.00  0.00    +0.149 C 
BRANCH  54  55
ATOM     55  N   PHE A   1       5.288   7.573   3.660  0.00  0.00    -0.238 NA
ATOM     56  H   PHE A   1       5.485   8.400   4.259  0.00  0.00    +0.142 HD
ENDBRANCH  54  55
BRANCH  54  57
ATOM     57  CB  PHE A   1       5.457   8.739   1.516  0.00  0.00    +0.053 C 
BRANCH  57  58
ATOM     58  CG  PHE A   1       3.982   8.756   1.181  0.00  0.00    -0.020 A 
ATOM     59  CD2 PHE A   1       3.023   9.090   2.150  0.00  0.00    -0.004 A 
ATOM     60  CE2 PHE A   1       1.639   9.055   1.849  0.00  0.00    -0.000 A 
ATOM     61  CZ  PHE A   1       1.219   8.670   0.585  0.00  0.00    -0.000 A 
ATOM     62  CE1 PHE A   1       2.168   8.345  -0.392  0.00  0.00    -0.000 A 
ATOM     63  CD1 PHE A   1       3.548   8.351  -0.077  0.00  0.00    -0.004 A 
ENDBRANCH  57  58
ENDBRANCH  54  57
ENDBRANCH  50  54
ENDBRANCH  49  52
BRANCH  49  64
ATOM     64  CB  PHE A   2       9.721   4.917   2.407  0.00  0.00    +0.055 C 
BRANCH  64  65
ATOM     65  CG  PHE A   2       9.788   5.181   3.886  0.00  0.00    -0.020 A 
ATOM     66  CD2 PHE A   2       8.642   5.138   4.672  0.00  0.00    -0.004 A 
ATOM     67  CE2 PHE A   2       8.711   5.422   6.026  0.00  0.00    -0.000 A 
ATOM     68  CZ  PHE A   2       9.929   5.815   6.599  0.00  0.00    -0.000 A 
ATOM     69  CE1 PHE A   2      11.078   5.880   5.828  0.00  0.00    -0.000 A 
ATOM     70  CD1 PHE A   2      11.005   5.561   4.469  0.00  0.00    -0.004 A 
ENDBRANCH  64  65
ENDBRANCH  49  64
ENDBRANCH  45  49
ENDBRANCH  44  46
ENDBRANCH  40  44
ENDBRANCH  39  42
BRANCH  39  71
ATOM     71  CB  GLU A   4      12.281   2.900  -4.847  0.00  0.00    +0.041 C 
BRANCH  71  72
ATOM     72  CG  GLU A   4      10.895   2.281  -4.728  0.00  0.00    +0.116 C 
BRANCH  72  73
ATOM     73  CD  GLU A   4      10.389   1.660  -6.023  0.00  0.00    +0.365 C 
ATOM     74  OE2 GLU A   4       9.175   1.352  -6.081  0.00  0.00    -0.246 OA
ATOM     75  OE1 GLU A   4      11.181   1.484  -6.964  0.00  0.00    -0.246 OA
ENDBRANCH  72  73
ENDBRANCH  71  72
ENDBRANCH  39  71
ENDBRANCH   1  39
TORSDOF 31
REMARK  Name = ../refined-set-2016/3cow/3cow_pocket.pdb
REMARK  226 active torsions:
REMARK  status: ('A' for Active; 'I' for Inactive)
REMARK    1  A    between atoms: _1  and  _3
REMARK    2  A    between atoms: _3  and  _4
REMARK    3  A    between atoms: _3  and  _6
REMARK    4  A    between atoms: _10  and  _11
REMARK    5  A    between atoms: _16  and  _18
REMARK    6  A    between atoms: _18  and  _19
REMARK    7  A    between atoms: _18  and  _21
REMARK    8  A    between atoms: _21  and  _22
REMARK    9  A    between atoms: _25  and  _27
REMARK   10  A    between atoms: _27  and  _28
REMARK   11  A    between atoms: _27  and  _30
REMARK   12  A    between atoms: _30  and  _31
REMARK   13  A    between atoms: _31  and  _32
REMARK   14  A    between atoms: _34  and  _36
REMARK   15  A    between atoms: _36  and  _37
REMARK   16  A    between atoms: _39  and  _41
REMARK   17  A    between atoms: _41  and  _42
REMARK   18  A    between atoms: _45  and  _47
REMARK   19  A    between atoms: _47  and  _48
REMARK   20  A    between atoms: _47  and  _50
REMARK   21  A    between atoms: _50  and  _51
REMARK   22  A    between atoms: _54  and  _56
REMARK   23  A    between atoms: _56  and  _57
REMARK   24  A    between atoms: _56  and  _59
REMARK   25  A    between atoms: _59  and  _60
REMARK   26  A    between atoms: _65  and  _67
REMARK   27  A    between atoms: _67  and  _68
REMARK   28  A    between atoms: _67  and  _70
REMARK   29  A    between atoms: _70  and  _71
REMARK   30  A    between atoms: _71  and  _72
REMARK   31  A    between atoms: _75  and  _77
REMARK   32  A    between atoms: _77  and  _78
REMARK   33  A    between atoms: _80  and  _82
REMARK   34  A    between atoms: _82  and  _83
REMARK   35  A    between atoms: _82  and  _85
REMARK   36  A    between atoms: _85  and  _86
REMARK   37  A    between atoms: _91  and  _93
REMARK   38  A    between atoms: _93  and  _94
REMARK   39  A    between atoms: _93  and  _96
REMARK   40  A    between atoms: _96  and  _97
REMARK   41  A    between atoms: _100  and  _102
REMARK   42  A    between atoms: _102  and  _103
REMARK   43  A    between atoms: _106  and  _108
REMARK   44  A    between atoms: _108  and  _109
REMARK   45  A    between atoms: _108  and  _111
REMARK   46  A    between atoms: _111  and  _112
REMARK   47  A    between atoms: _115  and  _117
REMARK   48  A    between atoms: _117  and  _118
REMARK   49  A    between atoms: _117  and  _120
REMARK   50  A    between atoms: _123  and  _125
REMARK   51  A    between atoms: _125  and  _126
REMARK   52  A    between atoms: _125  and  _128
REMARK   53  A    between atoms: _128  and  _129
REMARK   54  A    between atoms: _131  and  _133
REMARK   55  A    between atoms: _133  and  _134
REMARK   56  A    between atoms: _133  and  _136
REMARK   57  A    between atoms: _136  and  _137
REMARK   58  A    between atoms: _140  and  _142
REMARK   59  A    between atoms: _142  and  _143
REMARK   60  A    between atoms: _142  and  _145
REMARK   61  A    between atoms: _145  and  _146
REMARK   62  A    between atoms: _152  and  _154
REMARK   63  A    between atoms: _154  and  _155
REMARK   64  A    between atoms: _154  and  _157
REMARK   65  A    between atoms: _160  and  _162
REMARK   66  A    between atoms: _162  and  _163
REMARK   67  A    between atoms: _162  and  _165
REMARK   68  A    between atoms: _165  and  _166
REMARK   69  A    between atoms: _171  and  _173
REMARK   70  A    between atoms: _173  and  _174
REMARK   71  A    between atoms: _173  and  _176
REMARK   72  A    between atoms: _176  and  _177
REMARK   73  A    between atoms: _177  and  _178
REMARK   74  A    between atoms: _183  and  _185
REMARK   75  A    between atoms: _185  and  _186
REMARK   76  A    between atoms: _185  and  _188
REMARK   77  A    between atoms: _188  and  _189
REMARK   78  A    between atoms: _195  and  _197
REMARK   79  A    between atoms: _197  and  _198
REMARK   80  A    between atoms: _197  and  _200
REMARK   81  A    between atoms: _200  and  _201
REMARK   82  A    between atoms: _206  and  _207
REMARK   83  A    between atoms: _209  and  _211
REMARK   84  A    between atoms: _211  and  _212
REMARK   85  A    between atoms: _211  and  _214
REMARK   86  A    between atoms: _214  and  _215
REMARK   87  A    between atoms: _220  and  _221
REMARK   88  A    between atoms: _223  and  _225
REMARK   89  A    between atoms: _225  and  _226
REMARK   90  A    between atoms: _225  and  _228
REMARK   91  A    between atoms: _228  and  _229
REMARK   92  A    between atoms: _234  and  _236
REMARK   93  A    between atoms: _236  and  _237
REMARK   94  A    between atoms: _236  and  _239
REMARK   95  A    between atoms: _239  and  _240
REMARK   96  A    between atoms: _246  and  _248
REMARK   97  A    between atoms: _248  and  _249
REMARK   98  A    between atoms: _251  and  _253
REMARK   99  A    between atoms: _253  and  _254
REMARK  100  A    between atoms: _253  and  _256
REMARK  101  A    between atoms: _259  and  _261
REMARK  102  A    between atoms: _261  and  _262
REMARK  103  A    between atoms: _261  and  _264
REMARK  104  A    between atoms: _264  and  _265
REMARK  105  A    between atoms: _268  and  _270
REMARK  106  A    between atoms: _270  and  _271
REMARK  107  A    between atoms: _270  and  _273
REMARK  108  A    between atoms: _273  and  _274
REMARK  109  A    between atoms: _277  and  _279
REMARK  110  A    between atoms: _279  and  _280
REMARK  111  A    between atoms: _279  and  _282
REMARK  112  A    between atoms: _285  and  _287
REMARK  113  A    between atoms: _287  and  _288
REMARK  114  A    between atoms: _287  and  _290
REMARK  115  A    between atoms: _293  and  _295
REMARK  116  A    between atoms: _295  and  _296
REMARK  117  A    between atoms: _295  and  _298
REMARK  118  A    between atoms: _298  and  _299
REMARK  119  A    between atoms: _302  and  _304
REMARK  120  A    between atoms: _304  and  _305
REMARK  121  A    between atoms: _304  and  _307
REMARK  122  A    between atoms: _307  and  _308
REMARK  123  A    between atoms: _311  and  _313
REMARK  124  A    between atoms: _313  and  _314
REMARK  125  A    between atoms: _313  and  _316
REMARK  126  A    between atoms: _316  and  _317
REMARK  127  A    between atoms: _323  and  _325
REMARK  128  A    between atoms: _325  and  _326
REMARK  129  A    between atoms: _325  and  _328
REMARK  130  A    between atoms: _328  and  _329
REMARK  131  A    between atoms: _335  and  _337
REMARK  132  A    between atoms: _337  and  _338
REMARK  133  A    between atoms: _340  and  _342
REMARK  134  A    between atoms: _342  and  _343
REMARK  135  A    between atoms: _342  and  _345
REMARK  136  A    between atoms: _345  and  _346
REMARK  137  A    between atoms: _346  and  _347
REMARK  138  A    between atoms: _350  and  _352
REMARK  139  A    between atoms: _352  and  _353
REMARK  140  A    between atoms: _352  and  _355
REMARK  141  A    between atoms: _355  and  _356
REMARK  142  A    between atoms: _356  and  _357
REMARK  143  A    between atoms: _357  and  _358
REMARK  144  A    between atoms: _358  and  _359
REMARK  145  A    between atoms: _363  and  _365
REMARK  146  A    between atoms: _365  and  _366
REMARK  147  A    between atoms: _365  and  _368
REMARK  148  A    between atoms: _368  and  _369
REMARK  149  A    between atoms: _372  and  _374
REMARK  150  A    between atoms: _374  and  _375
REMARK  151  A    between atoms: _374  and  _377
REMARK  152  A    between atoms: _377  and  _378
REMARK  153  A    between atoms: _383  and  _384
REMARK  154  A    between atoms: _386  and  _388
REMARK  155  A    between atoms: _388  and  _389
REMARK  156  A    between atoms: _388  and  _391
REMARK  157  A    between atoms: _391  and  _392
REMARK  158  A    between atoms: _392  and  _393
REMARK  159  A    between atoms: _398  and  _400
REMARK  160  A    between atoms: _400  and  _401
REMARK  161  A    between atoms: _400  and  _403
REMARK  162  A    between atoms: _403  and  _404
REMARK  163  A    between atoms: _407  and  _409
REMARK  164  A    between atoms: _409  and  _410
REMARK  165  A    between atoms: _409  and  _412
REMARK  166  A    between atoms: _412  and  _413
REMARK  167  A    between atoms: _416  and  _418
REMARK  168  A    between atoms: _418  and  _419
REMARK  169  A    between atoms: _418  and  _421
REMARK  170  A    between atoms: _424  and  _426
REMARK  171  A    between atoms: _426  and  _427
REMARK  172  A    between atoms: _429  and  _431
REMARK  173  A    between atoms: _431  and  _432
REMARK  174  A    between atoms: _431  and  _434
REMARK  175  A    between atoms: _438  and  _439
REMARK  176  A    between atoms: _444  and  _446
REMARK  177  A    between atoms: _446  and  _447
REMARK  178  A    between atoms: _446  and  _449
REMARK  179  A    between atoms: _449  and  _450
REMARK  180  A    between atoms: _453  and  _455
REMARK  181  A    between atoms: _455  and  _456
REMARK  182  A    between atoms: _455  and  _458
REMARK  183  A    between atoms: _461  and  _463
REMARK  184  A    between atoms: _463  and  _464
REMARK  185  A    between atoms: _463  and  _466
REMARK  186  A    between atoms: _466  and  _467
REMARK  187  A    between atoms: _467  and  _468
REMARK  188  A    between atoms: _468  and  _469
REMARK  189  A    between atoms: _478  and  _480
REMARK  190  A    between atoms: _480  and  _481
REMARK  191  A    between atoms: _480  and  _483
REMARK  192  A    between atoms: _483  and  _484
REMARK  193  A    between atoms: _484  and  _485
REMARK  194  A    between atoms: _488  and  _490
REMARK  195  A    between atoms: _490  and  _491
REMARK  196  A    between atoms: _490  and  _493
REMARK  197  A    between atoms: _493  and  _494
REMARK  198  A    between atoms: _497  and  _499
REMARK  199  A    between atoms: _499  and  _500
REMARK  200  A    between atoms: _503  and  _505
REMARK  201  A    between atoms: _505  and  _506
REMARK  202  A    between atoms: _505  and  _508
REMARK  203  A    between atoms: _508  and  _509
REMARK  204  A    between atoms: _509  and  _510
REMARK  205  A    between atoms: _512  and  _514
REMARK  206  A    between atoms: _514  and  _515
REMARK  207  A    between atoms: _514  and  _517
REMARK  208  A    between atoms: _517  and  _518
REMARK  209  A    between atoms: _520  and  _522
REMARK  210  A    between atoms: _522  and  _523
REMARK  211  A    between atoms: _522  and  _525
REMARK  212  A    between atoms: _525  and  _526
REMARK  213  A    between atoms: _528  and  _530
REMARK  214  A    between atoms: _530  and  _531
REMARK  215  A    between atoms: _530  and  _533
REMARK  216  A    between atoms: _533  and  _534
REMARK  217  A    between atoms: _534  and  _535
REMARK  218  A    between atoms: _535  and  _536
REMARK  219  A    between atoms: _545  and  _547
REMARK  220  A    between atoms: _547  and  _548
REMARK  221  A    between atoms: _547  and  _550
REMARK  222  A    between atoms: _550  and  _551
REMARK  223  A    between atoms: _556  and  _558
REMARK  224  A    between atoms: _558  and  _559
REMARK  225  A    between atoms: _558  and  _561
REMARK  226  A    between atoms: _561  and  _562
REMARK                            x       y       z     vdW  Elec       q    Type
REMARK                         _______ _______ _______ _____ _____    ______ ____
ROOT
ATOM      1  C   GLN A   1      14.020   1.096   4.217  0.00  0.00    +0.238 C 
ATOM      2  O   GLN A   1      13.369   0.813   5.206  0.00  0.00    -0.274 OA
ATOM      3  N   LEU A   2      13.497   1.163   2.986  0.00  0.00    -0.298 N 
ATOM      4  H   LEU A   2      14.120   1.419   2.193  0.00  0.00    +0.150 HD
ENDROOT
BRANCH   1   5
ATOM      5  CA  GLN A   1      15.522   1.352   4.339  0.00  0.00    +0.145 C 
BRANCH   5   6
ATOM      6  N   GLN A   1      16.286   0.648   3.338  0.00  0.00    -0.238 NA
ATOM      7  H   GLN A   1      16.878   1.191   2.677  0.00  0.00    +0.142 HD
ENDBRANCH   5   6
BRANCH   5   8
ATOM      8  CB  GLN A   1      15.765   2.845   4.202  0.00  0.00    +0.036 C 
BRANCH   8   9
ATOM      9  CG  GLN A   1      14.856   3.671   5.060  0.00  0.00    +0.087 C 
BRANCH   9  10
ATOM     10  CD  GLN A   1      15.327   5.092   5.064  0.00  0.00    +0.219 C 
ATOM     11  OE1 GLN A   1      16.134   5.463   5.911  0.00  0.00    -0.275 OA
ATOM     12  NE2 GLN A   1      14.896   5.870   4.062  0.00  0.00    -0.329 N 
ATOM     13 HE21 GLN A   1      15.247   6.845   3.973  0.00  0.00    +0.145 HD
ATOM     14 HE22 GLN A   1      14.210   5.499   3.374  0.00  0.00    +0.145 HD
ENDBRANCH   9  10
ENDBRANCH   8   9
ENDBRANCH   5   8
ENDBRANCH   1   5
BRANCH   3  15
ATOM     15  CA  LEU A   2      12.082   0.890   2.709  0.00  0.00    +0.137 C 
BRANCH  15  16
ATOM     16  C   LEU A   2      11.711  -0.527   3.146  0.00  0.00    +0.227 C 
ATOM     17  O   LEU A   2      10.679  -0.712   3.791  0.00  0.00    -0.286 OA
ENDBRANCH  15  16
BRANCH  15  18
ATOM     18  CB  LEU A   2      11.814   1.080   1.210  0.00  0.00    +0.028 C 
BRANCH  18  19
ATOM     19  CG  LEU A   2      10.464   0.697   0.583  0.00  0.00    +0.002 C 
ATOM     20  CD2 LEU A   2       9.245   1.402   1.237  0.00  0.00    +0.000 C 
ATOM     21  CD1 LEU A   2      10.453   0.956  -0.936  0.00  0.00    +0.000 C 
ENDBRANCH  18  19
ENDBRANCH  15  18
ENDBRANCH   3  15
TORSDOF 9
REMARK  Name = ../refined-set-2016/3cow/3cow_pocket.pdb
REMARK  226 active torsions:
REMARK  status: ('A' for Active; 'I' for Inactive)
REMARK    1  A    between atoms: _1  and  _3
REMARK    2  A    between atoms: _3  and  _4
REMARK    3  A    between atoms: _3  and  _6
REMARK    4  A    between atoms: _10  and  _11
REMARK    5  A    between atoms: _16  and  _18
REMARK    6  A    between atoms: _18  and  _19
REMARK    7  A    between atoms: _18  and  _21
REMARK    8  A    between atoms: _21  and  _22
REMARK    9  A    between atoms: _25  and  _27
REMARK   10  A    between atoms: _27  and  _28
REMARK   11  A    between atoms: _27  and  _30
REMARK   12  A    between atoms: _30  and  _31
REMARK   13  A    between atoms: _31  and  _32
REMARK   14  A    between atoms: _34  and  _36
REMARK   15  A    between atoms: _36  and  _37
REMARK   16  A    between atoms: _39  and  _41
REMARK   17  A    between atoms: _41  and  _42
REMARK   18  A    between atoms: _45  and  _47
REMARK   19  A    between atoms: _47  and  _48
REMARK   20  A    between atoms: _47  and  _50
REMARK   21  A    between atoms: _50  and  _51
REMARK   22  A    between atoms: _54  and  _56
REMARK   23  A    between atoms: _56  and  _57
REMARK   24  A    between atoms: _56  and  _59
REMARK   25  A    between atoms: _59  and  _60
REMARK   26  A    between atoms: _65  and  _67
REMARK   27  A    between atoms: _67  and  _68
REMARK   28  A    between atoms: _67  and  _70
REMARK   29  A    between atoms: _70  and  _71
REMARK   30  A    between atoms: _71  and  _72
REMARK   31  A    between atoms: _75  and  _77
REMARK   32  A    between atoms: _77  and  _78
REMARK   33  A    between atoms: _80  and  _82
REMARK   34  A    between atoms: _82  and  _83
REMARK   35  A    between atoms: _82  and  _85
REMARK   36  A    between atoms: _85  and  _86
REMARK   37  A    between atoms: _91  and  _93
REMARK   38  A    between atoms: _93  and  _94
REMARK   39  A    between atoms: _93  and  _96
REMARK   40  A    between atoms: _96  and  _97
REMARK   41  A    between atoms: _100  and  _102
REMARK   42  A    between atoms: _102  and  _103
REMARK   43  A    between atoms: _106  and  _108
REMARK   44  A    between atoms: _108  and  _109
REMARK   45  A    between atoms: _108  and  _111
REMARK   46  A    between atoms: _111  and  _112
REMARK   47  A    between atoms: _115  and  _117
REMARK   48  A    between atoms: _117  and  _118
REMARK   49  A    between atoms: _117  and  _120
REMARK   50  A    between atoms: _123  and  _125
REMARK   51  A    between atoms: _125  and  _126
REMARK   52  A    between atoms: _125  and  _128
REMARK   53  A    between atoms: _128  and  _129
REMARK   54  A    between atoms: _131  and  _133
REMARK   55  A    between atoms: _133  and  _134
REMARK   56  A    between atoms: _133  and  _136
REMARK   57  A    between atoms: _136  and  _137
REMARK   58  A    between atoms: _140  and  _142
REMARK   59  A    between atoms: _142  and  _143
REMARK   60  A    between atoms: _142  and  _145
REMARK   61  A    between atoms: _145  and  _146
REMARK   62  A    between atoms: _152  and  _154
REMARK   63  A    between atoms: _154  and  _155
REMARK   64  A    between atoms: _154  and  _157
REMARK   65  A    between atoms: _160  and  _162
REMARK   66  A    between atoms: _162  and  _163
REMARK   67  A    between atoms: _162  and  _165
REMARK   68  A    between atoms: _165  and  _166
REMARK   69  A    between atoms: _171  and  _173
REMARK   70  A    between atoms: _173  and  _174
REMARK   71  A    between atoms: _173  and  _176
REMARK   72  A    between atoms: _176  and  _177
REMARK   73  A    between atoms: _177  and  _178
REMARK   74  A    between atoms: _183  and  _185
REMARK   75  A    between atoms: _185  and  _186
REMARK   76  A    between atoms: _185  and  _188
REMARK   77  A    between atoms: _188  and  _189
REMARK   78  A    between atoms: _195  and  _197
REMARK   79  A    between atoms: _197  and  _198
REMARK   80  A    between atoms: _197  and  _200
REMARK   81  A    between atoms: _200  and  _201
REMARK   82  A    between atoms: _206  and  _207
REMARK   83  A    between atoms: _209  and  _211
REMARK   84  A    between atoms: _211  and  _212
REMARK   85  A    between atoms: _211  and  _214
REMARK   86  A    between atoms: _214  and  _215
REMARK   87  A    between atoms: _220  and  _221
REMARK   88  A    between atoms: _223  and  _225
REMARK   89  A    between atoms: _225  and  _226
REMARK   90  A    between atoms: _225  and  _228
REMARK   91  A    between atoms: _228  and  _229
REMARK   92  A    between atoms: _234  and  _236
REMARK   93  A    between atoms: _236  and  _237
REMARK   94  A    between atoms: _236  and  _239
REMARK   95  A    between atoms: _239  and  _240
REMARK   96  A    between atoms: _246  and  _248
REMARK   97  A    between atoms: _248  and  _249
REMARK   98  A    between atoms: _251  and  _253
REMARK   99  A    between atoms: _253  and  _254
REMARK  100  A    between atoms: _253  and  _256
REMARK  101  A    between atoms: _259  and  _261
REMARK  102  A    between atoms: _261  and  _262
REMARK  103  A    between atoms: _261  and  _264
REMARK  104  A    between atoms: _264  and  _265
REMARK  105  A    between atoms: _268  and  _270
REMARK  106  A    between atoms: _270  and  _271
REMARK  107  A    between atoms: _270  and  _273
REMARK  108  A    between atoms: _273  and  _274
REMARK  109  A    between atoms: _277  and  _279
REMARK  110  A    between atoms: _279  and  _280
REMARK  111  A    between atoms: _279  and  _282
REMARK  112  A    between atoms: _285  and  _287
REMARK  113  A    between atoms: _287  and  _288
REMARK  114  A    between atoms: _287  and  _290
REMARK  115  A    between atoms: _293  and  _295
REMARK  116  A    between atoms: _295  and  _296
REMARK  117  A    between atoms: _295  and  _298
REMARK  118  A    between atoms: _298  and  _299
REMARK  119  A    between atoms: _302  and  _304
REMARK  120  A    between atoms: _304  and  _305
REMARK  121  A    between atoms: _304  and  _307
REMARK  122  A    between atoms: _307  and  _308
REMARK  123  A    between atoms: _311  and  _313
REMARK  124  A    between atoms: _313  and  _314
REMARK  125  A    between atoms: _313  and  _316
REMARK  126  A    between atoms: _316  and  _317
REMARK  127  A    between atoms: _323  and  _325
REMARK  128  A    between atoms: _325  and  _326
REMARK  129  A    between atoms: _325  and  _328
REMARK  130  A    between atoms: _328  and  _329
REMARK  131  A    between atoms: _335  and  _337
REMARK  132  A    between atoms: _337  and  _338
REMARK  133  A    between atoms: _340  and  _342
REMARK  134  A    between atoms: _342  and  _343
REMARK  135  A    between atoms: _342  and  _345
REMARK  136  A    between atoms: _345  and  _346
REMARK  137  A    between atoms: _346  and  _347
REMARK  138  A    between atoms: _350  and  _352
REMARK  139  A    between atoms: _352  and  _353
REMARK  140  A    between atoms: _352  and  _355
REMARK  141  A    between atoms: _355  and  _356
REMARK  142  A    between atoms: _356  and  _357
REMARK  143  A    between atoms: _357  and  _358
REMARK  144  A    between atoms: _358  and  _359
REMARK  145  A    between atoms: _363  and  _365
REMARK  146  A    between atoms: _365  and  _366
REMARK  147  A    between atoms: _365  and  _368
REMARK  148  A    between atoms: _368  and  _369
REMARK  149  A    between atoms: _372  and  _374
REMARK  150  A    between atoms: _374  and  _375
REMARK  151  A    between atoms: _374  and  _377
REMARK  152  A    between atoms: _377  and  _378
REMARK  153  A    between atoms: _383  and  _384
REMARK  154  A    between atoms: _386  and  _388
REMARK  155  A    between atoms: _388  and  _389
REMARK  156  A    between atoms: _388  and  _391
REMARK  157  A    between atoms: _391  and  _392
REMARK  158  A    between atoms: _392  and  _393
REMARK  159  A    between atoms: _398  and  _400
REMARK  160  A    between atoms: _400  and  _401
REMARK  161  A    between atoms: _400  and  _403
REMARK  162  A    between atoms: _403  and  _404
REMARK  163  A    between atoms: _407  and  _409
REMARK  164  A    between atoms: _409  and  _410
REMARK  165  A    between atoms: _409  and  _412
REMARK  166  A    between atoms: _412  and  _413
REMARK  167  A    between atoms: _416  and  _418
REMARK  168  A    between atoms: _418  and  _419
REMARK  169  A    between atoms: _418  and  _421
REMARK  170  A    between atoms: _424  and  _426
REMARK  171  A    between atoms: _426  and  _427
REMARK  172  A    between atoms: _429  and  _431
REMARK  173  A    between atoms: _431  and  _432
REMARK  174  A    between atoms: _431  and  _434
REMARK  175  A    between atoms: _438  and  _439
REMARK  176  A    between atoms: _444  and  _446
REMARK  177  A    between atoms: _446  and  _447
REMARK  178  A    between atoms: _446  and  _449
REMARK  179  A    between atoms: _449  and  _450
REMARK  180  A    between atoms: _453  and  _455
REMARK  181  A    between atoms: _455  and  _456
REMARK  182  A    between atoms: _455  and  _458
REMARK  183  A    between atoms: _461  and  _463
REMARK  184  A    between atoms: _463  and  _464
REMARK  185  A    between atoms: _463  and  _466
REMARK  186  A    between atoms: _466  and  _467
REMARK  187  A    between atoms: _467  and  _468
REMARK  188  A    between atoms: _468  and  _469
REMARK  189  A    between atoms: _478  and  _480
REMARK  190  A    between atoms: _480  and  _481
REMARK  191  A    between atoms: _480  and  _483
REMARK  192  A    between atoms: _483  and  _484
REMARK  193  A    between atoms: _484  and  _485
REMARK  194  A    between atoms: _488  and  _490
REMARK  195  A    between atoms: _490  and  _491
REMARK  196  A    between atoms: _490  and  _493
REMARK  197  A    between atoms: _493  and  _494
REMARK  198  A    between atoms: _497  and  _499
REMARK  199  A    between atoms: _499  and  _500
REMARK  200  A    between atoms: _503  and  _505
REMARK  201  A    between atoms: _505  and  _506
REMARK  202  A    between atoms: _505  and  _508
REMARK  203  A    between atoms: _508  and  _509
REMARK  204  A    between atoms: _509  and  _510
REMARK  205  A    between atoms: _512  and  _514
REMARK  206  A    between atoms: _514  and  _515
REMARK  207  A    between atoms: _514  and  _517
REMARK  208  A    between atoms: _517  and  _518
REMARK  209  A    between atoms: _520  and  _522
REMARK  210  A    between atoms: _522  and  _523
REMARK  211  A    between atoms: _522  and  _525
REMARK  212  A    between atoms: _525  and  _526
REMARK  213  A    between atoms: _528  and  _530
REMARK  214  A    between atoms: _530  and  _531
REMARK  215  A    between atoms: _530  and  _533
REMARK  216  A    between atoms: _533  and  _534
REMARK  217  A    between atoms: _534  and  _535
REMARK  218  A    between atoms: _535  and  _536
REMARK  219  A    between atoms: _545  and  _547
REMARK  220  A    between atoms: _547  and  _548
REMARK  221  A    between atoms: _547  and  _550
REMARK  222  A    between atoms: _550  and  _551
REMARK  223  A    between atoms: _556  and  _558
REMARK  224  A    between atoms: _558  and  _559
REMARK  225  A    between atoms: _558  and  _561
REMARK  226  A    between atoms: _561  and  _562
REMARK                            x       y       z     vdW  Elec       q    Type
REMARK                         _______ _______ _______ _____ _____    ______ ____
ROOT
ATOM      1  CA  ILE A   1      10.348  -0.032   7.407  0.00  0.00    +0.133 C 
ENDROOT
BRANCH   1   2
ATOM      2  N   ILE A   1      11.543  -0.694   6.890  0.00  0.00    -0.239 NA
ATOM      3  H   ILE A   1      12.006  -0.322   6.037  0.00  0.00    +0.142 HD
ENDBRANCH   1   2
BRANCH   1   4
ATOM      4  C   ILE A   1       9.146  -0.953   7.247  0.00  0.00    +0.224 C 
ATOM      5  O   ILE A   1       8.309  -1.019   8.115  0.00  0.00    -0.287 OA
ENDBRANCH   1   4
BRANCH   1   6
ATOM      6  CB  ILE A   1      10.093   1.336   6.737  0.00  0.00    +0.023 C 
ATOM      7  CG2 ILE A   1       8.808   1.976   7.249  0.00  0.00    +0.002 C 
BRANCH   6   8
ATOM      8  CG1 ILE A   1      11.245   2.323   7.039  0.00  0.00    +0.002 C 
ATOM      9  CD1 ILE A   1      11.557   2.583   8.502  0.00  0.00    +0.000 C 
ENDBRANCH   6   8
ENDBRANCH   1   6
TORSDOF 4
REMARK  Name = ../refined-set-2016/3cow/3cow_pocket.pdb
REMARK  226 active torsions:
REMARK  status: ('A' for Active; 'I' for Inactive)
REMARK    1  A    between atoms: _1  and  _3
REMARK    2  A    between atoms: _3  and  _4
REMARK    3  A    between atoms: _3  and  _6
REMARK    4  A    between atoms: _10  and  _11
REMARK    5  A    between atoms: _16  and  _18
REMARK    6  A    between atoms: _18  and  _19
REMARK    7  A    between atoms: _18  and  _21
REMARK    8  A    between atoms: _21  and  _22
REMARK    9  A    between atoms: _25  and  _27
REMARK   10  A    between atoms: _27  and  _28
REMARK   11  A    between atoms: _27  and  _30
REMARK   12  A    between atoms: _30  and  _31
REMARK   13  A    between atoms: _31  and  _32
REMARK   14  A    between atoms: _34  and  _36
REMARK   15  A    between atoms: _36  and  _37
REMARK   16  A    between atoms: _39  and  _41
REMARK   17  A    between atoms: _41  and  _42
REMARK   18  A    between atoms: _45  and  _47
REMARK   19  A    between atoms: _47  and  _48
REMARK   20  A    between atoms: _47  and  _50
REMARK   21  A    between atoms: _50  and  _51
REMARK   22  A    between atoms: _54  and  _56
REMARK   23  A    between atoms: _56  and  _57
REMARK   24  A    between atoms: _56  and  _59
REMARK   25  A    between atoms: _59  and  _60
REMARK   26  A    between atoms: _65  and  _67
REMARK   27  A    between atoms: _67  and  _68
REMARK   28  A    between atoms: _67  and  _70
REMARK   29  A    between atoms: _70  and  _71
REMARK   30  A    between atoms: _71  and  _72
REMARK   31  A    between atoms: _75  and  _77
REMARK   32  A    between atoms: _77  and  _78
REMARK   33  A    between atoms: _80  and  _82
REMARK   34  A    between atoms: _82  and  _83
REMARK   35  A    between atoms: _82  and  _85
REMARK   36  A    between atoms: _85  and  _86
REMARK   37  A    between atoms: _91  and  _93
REMARK   38  A    between atoms: _93  and  _94
REMARK   39  A    between atoms: _93  and  _96
REMARK   40  A    between atoms: _96  and  _97
REMARK   41  A    between atoms: _100  and  _102
REMARK   42  A    between atoms: _102  and  _103
REMARK   43  A    between atoms: _106  and  _108
REMARK   44  A    between atoms: _108  and  _109
REMARK   45  A    between atoms: _108  and  _111
REMARK   46  A    between atoms: _111  and  _112
REMARK   47  A    between atoms: _115  and  _117
REMARK   48  A    between atoms: _117  and  _118
REMARK   49  A    between atoms: _117  and  _120
REMARK   50  A    between atoms: _123  and  _125
REMARK   51  A    between atoms: _125  and  _126
REMARK   52  A    between atoms: _125  and  _128
REMARK   53  A    between atoms: _128  and  _129
REMARK   54  A    between atoms: _131  and  _133
REMARK   55  A    between atoms: _133  and  _134
REMARK   56  A    between atoms: _133  and  _136
REMARK   57  A    between atoms: _136  and  _137
REMARK   58  A    between atoms: _140  and  _142
REMARK   59  A    between atoms: _142  and  _143
REMARK   60  A    between atoms: _142  and  _145
REMARK   61  A    between atoms: _145  and  _146
REMARK   62  A    between atoms: _152  and  _154
REMARK   63  A    between atoms: _154  and  _155
REMARK   64  A    between atoms: _154  and  _157
REMARK   65  A    between atoms: _160  and  _162
REMARK   66  A    between atoms: _162  and  _163
REMARK   67  A    between atoms: _162  and  _165
REMARK   68  A    between atoms: _165  and  _166
REMARK   69  A    between atoms: _171  and  _173
REMARK   70  A    between atoms: _173  and  _174
REMARK   71  A    between atoms: _173  and  _176
REMARK   72  A    between atoms: _176  and  _177
REMARK   73  A    between atoms: _177  and  _178
REMARK   74  A    between atoms: _183  and  _185
REMARK   75  A    between atoms: _185  and  _186
REMARK   76  A    between atoms: _185  and  _188
REMARK   77  A    between atoms: _188  and  _189
REMARK   78  A    between atoms: _195  and  _197
REMARK   79  A    between atoms: _197  and  _198
REMARK   80  A    between atoms: _197  and  _200
REMARK   81  A    between atoms: _200  and  _201
REMARK   82  A    between atoms: _206  and  _207
REMARK   83  A    between atoms: _209  and  _211
REMARK   84  A    between atoms: _211  and  _212
REMARK   85  A    between atoms: _211  and  _214
REMARK   86  A    between atoms: _214  and  _215
REMARK   87  A    between atoms: _220  and  _221
REMARK   88  A    between atoms: _223  and  _225
REMARK   89  A    between atoms: _225  and  _226
REMARK   90  A    between atoms: _225  and  _228
REMARK   91  A    between atoms: _228  and  _229
REMARK   92  A    between atoms: _234  and  _236
REMARK   93  A    between atoms: _236  and  _237
REMARK   94  A    between atoms: _236  and  _239
REMARK   95  A    between atoms: _239  and  _240
REMARK   96  A    between atoms: _246  and  _248
REMARK   97  A    between atoms: _248  and  _249
REMARK   98  A    between atoms: _251  and  _253
REMARK   99  A    between atoms: _253  and  _254
REMARK  100  A    between atoms: _253  and  _256
REMARK  101  A    between atoms: _259  and  _261
REMARK  102  A    between atoms: _261  and  _262
REMARK  103  A    between atoms: _261  and  _264
REMARK  104  A    between atoms: _264  and  _265
REMARK  105  A    between atoms: _268  and  _270
REMARK  106  A    between atoms: _270  and  _271
REMARK  107  A    between atoms: _270  and  _273
REMARK  108  A    between atoms: _273  and  _274
REMARK  109  A    between atoms: _277  and  _279
REMARK  110  A    between atoms: _279  and  _280
REMARK  111  A    between atoms: _279  and  _282
REMARK  112  A    between atoms: _285  and  _287
REMARK  113  A    between atoms: _287  and  _288
REMARK  114  A    between atoms: _287  and  _290
REMARK  115  A    between atoms: _293  and  _295
REMARK  116  A    between atoms: _295  and  _296
REMARK  117  A    between atoms: _295  and  _298
REMARK  118  A    between atoms: _298  and  _299
REMARK  119  A    between atoms: _302  and  _304
REMARK  120  A    between atoms: _304  and  _305
REMARK  121  A    between atoms: _304  and  _307
REMARK  122  A    between atoms: _307  and  _308
REMARK  123  A    between atoms: _311  and  _313
REMARK  124  A    between atoms: _313  and  _314
REMARK  125  A    between atoms: _313  and  _316
REMARK  126  A    between atoms: _316  and  _317
REMARK  127  A    between atoms: _323  and  _325
REMARK  128  A    between atoms: _325  and  _326
REMARK  129  A    between atoms: _325  and  _328
REMARK  130  A    between atoms: _328  and  _329
REMARK  131  A    between atoms: _335  and  _337
REMARK  132  A    between atoms: _337  and  _338
REMARK  133  A    between atoms: _340  and  _342
REMARK  134  A    between atoms: _342  and  _343
REMARK  135  A    between atoms: _342  and  _345
REMARK  136  A    between atoms: _345  and  _346
REMARK  137  A    between atoms: _346  and  _347
REMARK  138  A    between atoms: _350  and  _352
REMARK  139  A    between atoms: _352  and  _353
REMARK  140  A    between atoms: _352  and  _355
REMARK  141  A    between atoms: _355  and  _356
REMARK  142  A    between atoms: _356  and  _357
REMARK  143  A    between atoms: _357  and  _358
REMARK  144  A    between atoms: _358  and  _359
REMARK  145  A    between atoms: _363  and  _365
REMARK  146  A    between atoms: _365  and  _366
REMARK  147  A    between atoms: _365  and  _368
REMARK  148  A    between atoms: _368  and  _369
REMARK  149  A    between atoms: _372  and  _374
REMARK  150  A    between atoms: _374  and  _375
REMARK  151  A    between atoms: _374  and  _377
REMARK  152  A    between atoms: _377  and  _378
REMARK  153  A    between atoms: _383  and  _384
REMARK  154  A    between atoms: _386  and  _388
REMARK  155  A    between atoms: _388  and  _389
REMARK  156  A    between atoms: _388  and  _391
REMARK  157  A    between atoms: _391  and  _392
REMARK  158  A    between atoms: _392  and  _393
REMARK  159  A    between atoms: _398  and  _400
REMARK  160  A    between atoms: _400  and  _401
REMARK  161  A    between atoms: _400  and  _403
REMARK  162  A    between atoms: _403  and  _404
REMARK  163  A    between atoms: _407  and  _409
REMARK  164  A    between atoms: _409  and  _410
REMARK  165  A    between atoms: _409  and  _412
REMARK  166  A    between atoms: _412  and  _413
REMARK  167  A    between atoms: _416  and  _418
REMARK  168  A    between atoms: _418  and  _419
REMARK  169  A    between atoms: _418  and  _421
REMARK  170  A    between atoms: _424  and  _426
REMARK  171  A    between atoms: _426  and  _427
REMARK  172  A    between atoms: _429  and  _431
REMARK  173  A    between atoms: _431  and  _432
REMARK  174  A    between atoms: _431  and  _434
REMARK  175  A    between atoms: _438  and  _439
REMARK  176  A    between atoms: _444  and  _446
REMARK  177  A    between atoms: _446  and  _447
REMARK  178  A    between atoms: _446  and  _449
REMARK  179  A    between atoms: _449  and  _450
REMARK  180  A    between atoms: _453  and  _455
REMARK  181  A    between atoms: _455  and  _456
REMARK  182  A    between atoms: _455  and  _458
REMARK  183  A    between atoms: _461  and  _463
REMARK  184  A    between atoms: _463  and  _464
REMARK  185  A    between atoms: _463  and  _466
REMARK  186  A    between atoms: _466  and  _467
REMARK  187  A    between atoms: _467  and  _468
REMARK  188  A    between atoms: _468  and  _469
REMARK  189  A    between atoms: _478  and  _480
REMARK  190  A    between atoms: _480  and  _481
REMARK  191  A    between atoms: _480  and  _483
REMARK  192  A    between atoms: _483  and  _484
REMARK  193  A    between atoms: _484  and  _485
REMARK  194  A    between atoms: _488  and  _490
REMARK  195  A    between atoms: _490  and  _491
REMARK  196  A    between atoms: _490  and  _493
REMARK  197  A    between atoms: _493  and  _494
REMARK  198  A    between atoms: _497  and  _499
REMARK  199  A    between atoms: _499  and  _500
REMARK  200  A    between atoms: _503  and  _505
REMARK  201  A    between atoms: _505  and  _506
REMARK  202  A    between atoms: _505  and  _508
REMARK  203  A    between atoms: _508  and  _509
REMARK  204  A    between atoms: _509  and  _510
REMARK  205  A    between atoms: _512  and  _514
REMARK  206  A    between atoms: _514  and  _515
REMARK  207  A    between atoms: _514  and  _517
REMARK  208  A    between atoms: _517  and  _518
REMARK  209  A    between atoms: _520  and  _522
REMARK  210  A    between atoms: _522  and  _523
REMARK  211  A    between atoms: _522  and  _525
REMARK  212  A    between atoms: _525  and  _526
REMARK  213  A    between atoms: _528  and  _530
REMARK  214  A    between atoms: _530  and  _531
REMARK  215  A    between atoms: _530  and  _533
REMARK  216  A    between atoms: _533  and  _534
REMARK  217  A    between atoms: _534  and  _535
REMARK  218  A    between atoms: _535  and  _536
REMARK  219  A    between atoms: _545  and  _547
REMARK  220  A    between atoms: _547  and  _548
REMARK  221  A    between atoms: _547  and  _550
REMARK  222  A    between atoms: _550  and  _551
REMARK  223  A    between atoms: _556  and  _558
REMARK  224  A    between atoms: _558  and  _559
REMARK  225  A    between atoms: _558  and  _561
REMARK  226  A    between atoms: _561  and  _562
REMARK                            x       y       z     vdW  Elec       q    Type
REMARK                         _______ _______ _______ _____ _____    ______ ____
ROOT
ATOM      1  C   THR A   5      13.312   7.991  -8.563  0.00  0.00    +0.243 C 
ATOM      2  N   VAL A   6      13.514   9.223  -8.114  0.00  0.00    -0.297 N 
ATOM      3  H   VAL A   6      13.605   9.375  -7.089  0.00  0.00    +0.150 HD
ATOM      4  O   THR A   5      13.101   7.730  -9.748  0.00  0.00    -0.273 OA
ENDROOT
BRANCH   2   5
ATOM      5  CA  VAL A   6      13.614  10.380  -9.015  0.00  0.00    +0.149 C 
BRANCH   5   6
ATOM      6  C   VAL A   6      15.040  10.527  -9.481  0.00  0.00    +0.241 C 
ATOM      7  O   VAL A   6      15.978  10.483  -8.663  0.00  0.00    -0.273 OA
ATOM      8  N   ARG A   7      15.221  10.704 -10.795  0.00  0.00    -0.297 N 
ATOM      9  H   ARG A   7      14.392  10.813 -11.414  0.00  0.00    +0.150 HD
BRANCH   8  10
ATOM     10  CA  ARG A   7      16.568  10.747 -11.381  0.00  0.00    +0.149 C 
BRANCH  10  11
ATOM     11  C   ARG A   7      16.811  12.027 -12.169  0.00  0.00    +0.241 C 
ATOM     12  N   GLU A   8      18.068  12.411 -12.279  0.00  0.00    -0.298 N 
ATOM     13  H   GLU A   8      18.815  11.905 -11.762  0.00  0.00    +0.150 HD
ATOM     14  O   ARG A   7      15.873  12.647 -12.654  0.00  0.00    -0.273 OA
BRANCH  12  15
ATOM     15  CA  GLU A   8      18.410  13.558 -13.137  0.00  0.00    +0.137 C 
BRANCH  15  16
ATOM     16  C   GLU A   8      18.226  13.105 -14.591  0.00  0.00    +0.227 C 
ATOM     17  O   GLU A   8      17.958  11.926 -14.846  0.00  0.00    -0.286 OA
ENDBRANCH  15  16
BRANCH  15  18
ATOM     18  CB  GLU A   8      19.843  14.017 -12.895  0.00  0.00    +0.039 C 
BRANCH  18  19
ATOM     19  CG  GLU A   8      20.144  14.497 -11.506  0.00  0.00    +0.116 C 
BRANCH  19  20
ATOM     20  CD  GLU A   8      19.596  15.880 -11.214  0.00  0.00    +0.365 C 
ATOM     21  OE2 GLU A   8      19.647  16.290 -10.031  0.00  0.00    -0.246 OA
ATOM     22  OE1 GLU A   8      19.111  16.552 -12.152  0.00  0.00    -0.246 OA
ENDBRANCH  19  20
ENDBRANCH  18  19
ENDBRANCH  15  18
ENDBRANCH  12  15
ENDBRANCH  10  11
BRANCH  10  23
ATOM     23  CB  ARG A   7      16.778   9.567 -12.318  0.00  0.00    +0.033 C 
BRANCH  23  24
ATOM     24  CG  ARG A   7      16.661   8.226 -11.595  0.00  0.00    +0.045 C 
BRANCH  24  25
ATOM     25  CD  ARG A   7      16.783   7.063 -12.558  0.00  0.00    +0.174 C 
BRANCH  25  26
ATOM     26  NE  ARG A   7      16.681   5.812 -11.809  0.00  0.00    -0.265 N 
ATOM     27  CZ  ARG A   7      17.701   5.230 -11.181  0.00  0.00    +0.342 C 
ATOM     28  NH2 ARG A   7      17.504   4.102 -10.486  0.00  0.00    -0.292 N 
ATOM     29 HH21 ARG A   7      18.301   3.648  -9.996  0.00  0.00    +0.255 HD
ATOM     30 HH22 ARG A   7      16.554   3.681 -10.437  0.00  0.00    +0.255 HD
ATOM     31  NH1 ARG A   7      18.913   5.773 -11.241  0.00  0.00    -0.292 N 
ATOM     32 HH11 ARG A   7      19.711   5.320 -10.751  0.00  0.00    +0.255 HD
ATOM     33 HH12 ARG A   7      19.063   6.651 -11.778  0.00  0.00    +0.255 HD
ATOM     34  HE  ARG A   7      15.752   5.346 -11.764  0.00  0.00    +0.259 HD
ENDBRANCH  25  26
ENDBRANCH  24  25
ENDBRANCH  23  24
ENDBRANCH  10  23
ENDBRANCH   8  10
ENDBRANCH   5   6
BRANCH   5  35
ATOM     35  CB  VAL A   6      13.092  11.675  -8.352  0.00  0.00    +0.027 C 
ATOM     36  CG2 VAL A   6      11.676  11.461  -7.878  0.00  0.00    +0.002 C 
ATOM     37  CG1 VAL A   6      13.125  12.825  -9.374  0.00  0.00    +0.002 C 
ENDBRANCH   5  35
ENDBRANCH   2   5
BRANCH   1  38
ATOM     38  CA  THR A   5      13.343   6.871  -7.502  0.00  0.00    +0.176 C 
BRANCH  38  41
ATOM     39  C   PRO A   4      10.960   6.413  -7.290  0.00  0.00    +0.241 C 
ATOM     40  O   PRO A   4      10.709   7.610  -7.046  0.00  0.00    -0.273 OA
ATOM     41  N   THR A   5      12.177   5.971  -7.550  0.00  0.00    -0.295 N 
ATOM     42  H   THR A   5      12.315   4.969  -7.793  0.00  0.00    +0.150 HD
BRANCH  39  49
ATOM     43  C   VAL A   3       8.896   5.677  -5.135  0.00  0.00    +0.244 C 
ATOM     44  O   VAL A   3      10.015   5.577  -4.642  0.00  0.00    -0.273 OA
ATOM     45  N   PRO A   4       8.685   5.610  -6.475  0.00  0.00    -0.272 N 
ATOM     46  CD  PRO A   4       7.433   5.737  -7.259  0.00  0.00    +0.094 C 
ATOM     47  CG  PRO A   4       7.747   4.957  -8.500  0.00  0.00    +0.024 C 
ATOM     48  CB  PRO A   4       9.223   5.321  -8.757  0.00  0.00    +0.031 C 
ATOM     49  CA  PRO A   4       9.844   5.353  -7.351  0.00  0.00    +0.152 C 
BRANCH  43  50
ATOM     50  CA  VAL A   3       7.684   5.859  -4.213  0.00  0.00    +0.149 C 
BRANCH  50  52
ATOM     51  C   GLY A   2       6.862   3.988  -2.908  0.00  0.00    +0.243 C 
ATOM     52  N   VAL A   3       7.795   4.903  -3.118  0.00  0.00    -0.297 N 
ATOM     53  H   VAL A   3       8.623   4.941  -2.490  0.00  0.00    +0.150 HD
ATOM     54  O   GLY A   2       5.873   3.860  -3.639  0.00  0.00    -0.273 OA
BRANCH  51  55
ATOM     55  CA  GLY A   2       7.057   3.101  -1.700  0.00  0.00    +0.176 C 
BRANCH  55  58
ATOM     56  C   VAL A   1       5.267   3.839  -0.187  0.00  0.00    +0.238 C 
ATOM     57  O   VAL A   1       5.888   4.833   0.186  0.00  0.00    -0.274 OA
ATOM     58  N   GLY A   2       5.749   2.950  -1.059  0.00  0.00    -0.296 N 
ATOM     59  H   GLY A   2       5.172   2.117  -1.292  0.00  0.00    +0.150 HD
BRANCH  56  60
ATOM     60  CA  VAL A   1       3.857   3.561   0.333  0.00  0.00    +0.145 C 
BRANCH  60  61
ATOM     61  CB  VAL A   1       2.931   4.725  -0.052  0.00  0.00    +0.025 C 
ATOM     62  CG2 VAL A   1       1.506   4.538   0.529  0.00  0.00    +0.002 C 
ATOM     63  CG1 VAL A   1       2.941   4.924  -1.580  0.00  0.00    +0.002 C 
ENDBRANCH  60  61
BRANCH  60  64
ATOM     64  N   VAL A   1       3.895   3.335   1.776  0.00  0.00    -0.238 NA
ATOM     65  H   VAL A   1       4.076   4.136   2.414  0.00  0.00    +0.142 HD
ENDBRANCH  60  64
ENDBRANCH  56  60
ENDBRANCH  55  58
ENDBRANCH  51  55
ENDBRANCH  50  52
BRANCH  50  66
ATOM     66  CB  VAL A   3       7.613   7.264  -3.642  0.00  0.00    +0.027 C 
ATOM     67  CG2 VAL A   3       6.290   7.454  -2.898  0.00  0.00    +0.002 C 
ATOM     68  CG1 VAL A   3       7.773   8.328  -4.758  0.00  0.00    +0.002 C 
ENDBRANCH  50  66
ENDBRANCH  43  50
ENDBRANCH  39  49
ENDBRANCH  38  41
BRANCH  38  69
ATOM     69  CB  THR A   5      14.634   6.063  -7.635  0.00  0.00    +0.137 C 
ATOM     70  CG2 THR A   5      15.822   6.975  -7.674  0.00  0.00    +0.034 C 
BRANCH  69  71
ATOM     71  OG1 THR A   5      14.747   5.171  -6.511  0.00  0.00    -0.382 OA
ATOM     72  HG1 THR A   5      15.582   4.645  -6.591  0.00  0.00    +0.210 HD
ENDBRANCH  69  71
ENDBRANCH  38  69
ENDBRANCH   1  38
TORSDOF 27
REMARK  Name = ../refined-set-2016/3cow/3cow_pocket.pdb
REMARK  226 active torsions:
REMARK  status: ('A' for Active; 'I' for Inactive)
REMARK    1  A    between atoms: _1  and  _3
REMARK    2  A    between atoms: _3  and  _4
REMARK    3  A    between atoms: _3  and  _6
REMARK    4  A    between atoms: _10  and  _11
REMARK    5  A    between atoms: _16  and  _18
REMARK    6  A    between atoms: _18  and  _19
REMARK    7  A    between atoms: _18  and  _21
REMARK    8  A    between atoms: _21  and  _22
REMARK    9  A    between atoms: _25  and  _27
REMARK   10  A    between atoms: _27  and  _28
REMARK   11  A    between atoms: _27  and  _30
REMARK   12  A    between atoms: _30  and  _31
REMARK   13  A    between atoms: _31  and  _32
REMARK   14  A    between atoms: _34  and  _36
REMARK   15  A    between atoms: _36  and  _37
REMARK   16  A    between atoms: _39  and  _41
REMARK   17  A    between atoms: _41  and  _42
REMARK   18  A    between atoms: _45  and  _47
REMARK   19  A    between atoms: _47  and  _48
REMARK   20  A    between atoms: _47  and  _50
REMARK   21  A    between atoms: _50  and  _51
REMARK   22  A    between atoms: _54  and  _56
REMARK   23  A    between atoms: _56  and  _57
REMARK   24  A    between atoms: _56  and  _59
REMARK   25  A    between atoms: _59  and  _60
REMARK   26  A    between atoms: _65  and  _67
REMARK   27  A    between atoms: _67  and  _68
REMARK   28  A    between atoms: _67  and  _70
REMARK   29  A    between atoms: _70  and  _71
REMARK   30  A    between atoms: _71  and  _72
REMARK   31  A    between atoms: _75  and  _77
REMARK   32  A    between atoms: _77  and  _78
REMARK   33  A    between atoms: _80  and  _82
REMARK   34  A    between atoms: _82  and  _83
REMARK   35  A    between atoms: _82  and  _85
REMARK   36  A    between atoms: _85  and  _86
REMARK   37  A    between atoms: _91  and  _93
REMARK   38  A    between atoms: _93  and  _94
REMARK   39  A    between atoms: _93  and  _96
REMARK   40  A    between atoms: _96  and  _97
REMARK   41  A    between atoms: _100  and  _102
REMARK   42  A    between atoms: _102  and  _103
REMARK   43  A    between atoms: _106  and  _108
REMARK   44  A    between atoms: _108  and  _109
REMARK   45  A    between atoms: _108  and  _111
REMARK   46  A    between atoms: _111  and  _112
REMARK   47  A    between atoms: _115  and  _117
REMARK   48  A    between atoms: _117  and  _118
REMARK   49  A    between atoms: _117  and  _120
REMARK   50  A    between atoms: _123  and  _125
REMARK   51  A    between atoms: _125  and  _126
REMARK   52  A    between atoms: _125  and  _128
REMARK   53  A    between atoms: _128  and  _129
REMARK   54  A    between atoms: _131  and  _133
REMARK   55  A    between atoms: _133  and  _134
REMARK   56  A    between atoms: _133  and  _136
REMARK   57  A    between atoms: _136  and  _137
REMARK   58  A    between atoms: _140  and  _142
REMARK   59  A    between atoms: _142  and  _143
REMARK   60  A    between atoms: _142  and  _145
REMARK   61  A    between atoms: _145  and  _146
REMARK   62  A    between atoms: _152  and  _154
REMARK   63  A    between atoms: _154  and  _155
REMARK   64  A    between atoms: _154  and  _157
REMARK   65  A    between atoms: _160  and  _162
REMARK   66  A    between atoms: _162  and  _163
REMARK   67  A    between atoms: _162  and  _165
REMARK   68  A    between atoms: _165  and  _166
REMARK   69  A    between atoms: _171  and  _173
REMARK   70  A    between atoms: _173  and  _174
REMARK   71  A    between atoms: _173  and  _176
REMARK   72  A    between atoms: _176  and  _177
REMARK   73  A    between atoms: _177  and  _178
REMARK   74  A    between atoms: _183  and  _185
REMARK   75  A    between atoms: _185  and  _186
REMARK   76  A    between atoms: _185  and  _188
REMARK   77  A    between atoms: _188  and  _189
REMARK   78  A    between atoms: _195  and  _197
REMARK   79  A    between atoms: _197  and  _198
REMARK   80  A    between atoms: _197  and  _200
REMARK   81  A    between atoms: _200  and  _201
REMARK   82  A    between atoms: _206  and  _207
REMARK   83  A    between atoms: _209  and  _211
REMARK   84  A    between atoms: _211  and  _212
REMARK   85  A    between atoms: _211  and  _214
REMARK   86  A    between atoms: _214  and  _215
REMARK   87  A    between atoms: _220  and  _221
REMARK   88  A    between atoms: _223  and  _225
REMARK   89  A    between atoms: _225  and  _226
REMARK   90  A    between atoms: _225  and  _228
REMARK   91  A    between atoms: _228  and  _229
REMARK   92  A    between atoms: _234  and  _236
REMARK   93  A    between atoms: _236  and  _237
REMARK   94  A    between atoms: _236  and  _239
REMARK   95  A    between atoms: _239  and  _240
REMARK   96  A    between atoms: _246  and  _248
REMARK   97  A    between atoms: _248  and  _249
REMARK   98  A    between atoms: _251  and  _253
REMARK   99  A    between atoms: _253  and  _254
REMARK  100  A    between atoms: _253  and  _256
REMARK  101  A    between atoms: _259  and  _261
REMARK  102  A    between atoms: _261  and  _262
REMARK  103  A    between atoms: _261  and  _264
REMARK  104  A    between atoms: _264  and  _265
REMARK  105  A    between atoms: _268  and  _270
REMARK  106  A    between atoms: _270  and  _271
REMARK  107  A    between atoms: _270  and  _273
REMARK  108  A    between atoms: _273  and  _274
REMARK  109  A    between atoms: _277  and  _279
REMARK  110  A    between atoms: _279  and  _280
REMARK  111  A    between atoms: _279  and  _282
REMARK  112  A    between atoms: _285  and  _287
REMARK  113  A    between atoms: _287  and  _288
REMARK  114  A    between atoms: _287  and  _290
REMARK  115  A    between atoms: _293  and  _295
REMARK  116  A    between atoms: _295  and  _296
REMARK  117  A    between atoms: _295  and  _298
REMARK  118  A    between atoms: _298  and  _299
REMARK  119  A    between atoms: _302  and  _304
REMARK  120  A    between atoms: _304  and  _305
REMARK  121  A    between atoms: _304  and  _307
REMARK  122  A    between atoms: _307  and  _308
REMARK  123  A    between atoms: _311  and  _313
REMARK  124  A    between atoms: _313  and  _314
REMARK  125  A    between atoms: _313  and  _316
REMARK  126  A    between atoms: _316  and  _317
REMARK  127  A    between atoms: _323  and  _325
REMARK  128  A    between atoms: _325  and  _326
REMARK  129  A    between atoms: _325  and  _328
REMARK  130  A    between atoms: _328  and  _329
REMARK  131  A    between atoms: _335  and  _337
REMARK  132  A    between atoms: _337  and  _338
REMARK  133  A    between atoms: _340  and  _342
REMARK  134  A    between atoms: _342  and  _343
REMARK  135  A    between atoms: _342  and  _345
REMARK  136  A    between atoms: _345  and  _346
REMARK  137  A    between atoms: _346  and  _347
REMARK  138  A    between atoms: _350  and  _352
REMARK  139  A    between atoms: _352  and  _353
REMARK  140  A    between atoms: _352  and  _355
REMARK  141  A    between atoms: _355  and  _356
REMARK  142  A    between atoms: _356  and  _357
REMARK  143  A    between atoms: _357  and  _358
REMARK  144  A    between atoms: _358  and  _359
REMARK  145  A    between atoms: _363  and  _365
REMARK  146  A    between atoms: _365  and  _366
REMARK  147  A    between atoms: _365  and  _368
REMARK  148  A    between atoms: _368  and  _369
REMARK  149  A    between atoms: _372  and  _374
REMARK  150  A    between atoms: _374  and  _375
REMARK  151  A    between atoms: _374  and  _377
REMARK  152  A    between atoms: _377  and  _378
REMARK  153  A    between atoms: _383  and  _384
REMARK  154  A    between atoms: _386  and  _388
REMARK  155  A    between atoms: _388  and  _389
REMARK  156  A    between atoms: _388  and  _391
REMARK  157  A    between atoms: _391  and  _392
REMARK  158  A    between atoms: _392  and  _393
REMARK  159  A    between atoms: _398  and  _400
REMARK  160  A    between atoms: _400  and  _401
REMARK  161  A    between atoms: _400  and  _403
REMARK  162  A    between atoms: _403  and  _404
REMARK  163  A    between atoms: _407  and  _409
REMARK  164  A    between atoms: _409  and  _410
REMARK  165  A    between atoms: _409  and  _412
REMARK  166  A    between atoms: _412  and  _413
REMARK  167  A    between atoms: _416  and  _418
REMARK  168  A    between atoms: _418  and  _419
REMARK  169  A    between atoms: _418  and  _421
REMARK  170  A    between atoms: _424  and  _426
REMARK  171  A    between atoms: _426  and  _427
REMARK  172  A    between atoms: _429  and  _431
REMARK  173  A    between atoms: _431  and  _432
REMARK  174  A    between atoms: _431  and  _434
REMARK  175  A    between atoms: _438  and  _439
REMARK  176  A    between atoms: _444  and  _446
REMARK  177  A    between atoms: _446  and  _447
REMARK  178  A    between atoms: _446  and  _449
REMARK  179  A    between atoms: _449  and  _450
REMARK  180  A    between atoms: _453  and  _455
REMARK  181  A    between atoms: _455  and  _456
REMARK  182  A    between atoms: _455  and  _458
REMARK  183  A    between atoms: _461  and  _463
REMARK  184  A    between atoms: _463  and  _464
REMARK  185  A    between atoms: _463  and  _466
REMARK  186  A    between atoms: _466  and  _467
REMARK  187  A    between atoms: _467  and  _468
REMARK  188  A    between atoms: _468  and  _469
REMARK  189  A    between atoms: _478  and  _480
REMARK  190  A    between atoms: _480  and  _481
REMARK  191  A    between atoms: _480  and  _483
REMARK  192  A    between atoms: _483  and  _484
REMARK  193  A    between atoms: _484  and  _485
REMARK  194  A    between atoms: _488  and  _490
REMARK  195  A    between atoms: _490  and  _491
REMARK  196  A    between atoms: _490  and  _493
REMARK  197  A    between atoms: _493  and  _494
REMARK  198  A    between atoms: _497  and  _499
REMARK  199  A    between atoms: _499  and  _500
REMARK  200  A    between atoms: _503  and  _505
REMARK  201  A    between atoms: _505  and  _506
REMARK  202  A    between atoms: _505  and  _508
REMARK  203  A    between atoms: _508  and  _509
REMARK  204  A    between atoms: _509  and  _510
REMARK  205  A    between atoms: _512  and  _514
REMARK  206  A    between atoms: _514  and  _515
REMARK  207  A    between atoms: _514  and  _517
REMARK  208  A    between atoms: _517  and  _518
REMARK  209  A    between atoms: _520  and  _522
REMARK  210  A    between atoms: _522  and  _523
REMARK  211  A    between atoms: _522  and  _525
REMARK  212  A    between atoms: _525  and  _526
REMARK  213  A    between atoms: _528  and  _530
REMARK  214  A    between atoms: _530  and  _531
REMARK  215  A    between atoms: _530  and  _533
REMARK  216  A    between atoms: _533  and  _534
REMARK  217  A    between atoms: _534  and  _535
REMARK  218  A    between atoms: _535  and  _536
REMARK  219  A    between atoms: _545  and  _547
REMARK  220  A    between atoms: _547  and  _548
REMARK  221  A    between atoms: _547  and  _550
REMARK  222  A    between atoms: _550  and  _551
REMARK  223  A    between atoms: _556  and  _558
REMARK  224  A    between atoms: _558  and  _559
REMARK  225  A    between atoms: _558  and  _561
REMARK  226  A    between atoms: _561  and  _562
REMARK                            x       y       z     vdW  Elec       q    Type
REMARK                         _______ _______ _______ _____ _____    ______ ____
ROOT
ATOM      1  C   SER A   4      21.048  14.145  -3.101  0.00  0.00    +0.243 C 
ATOM      2  N   SER A   5      20.820  14.450  -1.818  0.00  0.00    -0.295 N 
ATOM      3  H   SER A   5      20.268  13.797  -1.226  0.00  0.00    +0.150 HD
ATOM      4  O   SER A   4      21.683  14.858  -3.878  0.00  0.00    -0.273 OA
ENDROOT
BRANCH   2   5
ATOM      5  CA  SER A   5      21.340  15.698  -1.233  0.00  0.00    +0.178 C 
BRANCH   5   6
ATOM      6  C   SER A   5      22.865  15.611  -1.235  0.00  0.00    +0.243 C 
ATOM      7  O   SER A   5      23.542  16.627  -1.131  0.00  0.00    -0.273 OA
ATOM      8  N   ARG A   6      23.390  14.389  -1.368  0.00  0.00    -0.297 N 
ATOM      9  H   ARG A   6      22.757  13.566  -1.420  0.00  0.00    +0.150 HD
BRANCH   8  10
ATOM     10  CA  ARG A   6      24.839  14.186  -1.442  0.00  0.00    +0.149 C 
BRANCH  10  11
ATOM     11  C   ARG A   6      25.459  14.466  -2.798  0.00  0.00    +0.241 C 
ATOM     12  O   ARG A   6      26.692  14.499  -2.905  0.00  0.00    -0.273 OA
ATOM     13  N   ASN A   7      24.642  14.623  -3.842  0.00  0.00    -0.298 N 
ATOM     14  H   ASN A   7      23.612  14.574  -3.705  0.00  0.00    +0.150 HD
BRANCH  13  15
ATOM     15  CA  ASN A   7      25.185  14.862  -5.171  0.00  0.00    +0.146 C 
BRANCH  15  16
ATOM     16  C   ASN A   7      25.935  16.188  -5.222  0.00  0.00    +0.227 C 
ATOM     17  O   ASN A   7      26.780  16.375  -6.086  0.00  0.00    -0.286 OA
ENDBRANCH  15  16
BRANCH  15  18
ATOM     18  CB  ASN A   7      24.099  14.832  -6.259  0.00  0.00    +0.112 C 
BRANCH  18  19
ATOM     19  CG  ASN A   7      23.583  13.430  -6.515  0.00  0.00    +0.222 C 
ATOM     20  OD1 ASN A   7      24.194  12.463  -6.078  0.00  0.00    -0.275 OA
ATOM     21  ND2 ASN A   7      22.461  13.314  -7.216  0.00  0.00    -0.329 N 
ATOM     22 HD21 ASN A   7      22.067  12.372  -7.414  0.00  0.00    +0.145 HD
ATOM     23 HD22 ASN A   7      21.977  14.165  -7.567  0.00  0.00    +0.145 HD
ENDBRANCH  18  19
ENDBRANCH  15  18
ENDBRANCH  13  15
ENDBRANCH  10  11
BRANCH  10  24
ATOM     24  CB  ARG A   6      25.218  12.746  -1.079  0.00  0.00    +0.033 C 
BRANCH  24  25
ATOM     25  CG  ARG A   6      25.317  12.459   0.378  0.00  0.00    +0.045 C 
BRANCH  25  26
ATOM     26  CD  ARG A   6      25.915  11.074   0.596  0.00  0.00    +0.174 C 
BRANCH  26  27
ATOM     27  NE  ARG A   6      25.741  10.631   1.975  0.00  0.00    -0.265 N 
ATOM     28  HE  ARG A   6      25.392  11.327   2.664  0.00  0.00    +0.259 HD
ATOM     29  CZ  ARG A   6      25.997   9.401   2.415  0.00  0.00    +0.342 C 
ATOM     30  NH2 ARG A   6      25.801   9.112   3.696  0.00  0.00    -0.292 N 
ATOM     31 HH21 ARG A   6      25.450   9.844   4.346  0.00  0.00    +0.255 HD
ATOM     32 HH22 ARG A   6      25.998   8.154   4.049  0.00  0.00    +0.255 HD
ATOM     33  NH1 ARG A   6      26.447   8.462   1.583  0.00  0.00    -0.292 N 
ATOM     34 HH11 ARG A   6      26.644   7.504   1.937  0.00  0.00    +0.255 HD
ATOM     35 HH12 ARG A   6      26.601   8.687   0.579  0.00  0.00    +0.255 HD
ENDBRANCH  26  27
ENDBRANCH  25  26
ENDBRANCH  24  25
ENDBRANCH  10  24
ENDBRANCH   8  10
ENDBRANCH   5   6
BRANCH   5  36
ATOM     36  CB  SER A   5      20.803  15.924   0.192  0.00  0.00    +0.166 C 
BRANCH  36  37
ATOM     37  OG  SER A   5      21.131  14.823   1.031  0.00  0.00    -0.380 OA
ATOM     38  H   SER A   5      20.728  13.997   0.663  0.00  0.00    +0.211 HD
ENDBRANCH  36  37
ENDBRANCH   5  36
ENDBRANCH   2   5
BRANCH   1  39
ATOM     39  CA  SER A   4      20.502  12.808  -3.577  0.00  0.00    +0.178 C 
BRANCH  39  42
ATOM     40  C   MET A   3      19.113  12.195  -5.487  0.00  0.00    +0.241 C 
ATOM     41  O   MET A   3      18.513  11.331  -4.840  0.00  0.00    -0.273 OA
ATOM     42  N   SER A   4      20.085  12.942  -4.976  0.00  0.00    -0.295 N 
ATOM     43  H   SER A   4      20.562  13.639  -5.583  0.00  0.00    +0.150 HD
BRANCH  40  44
ATOM     44  CA  MET A   3      18.779  12.461  -6.950  0.00  0.00    +0.149 C 
BRANCH  44  47
ATOM     45  C   ALA A   2      19.737  10.457  -7.907  0.00  0.00    +0.241 C 
ATOM     46  O   ALA A   2      20.844  10.731  -7.472  0.00  0.00    -0.273 OA
ATOM     47  N   MET A   3      18.662  11.214  -7.712  0.00  0.00    -0.297 N 
ATOM     48  H   MET A   3      17.741  10.923  -8.098  0.00  0.00    +0.150 HD
BRANCH  45  49
ATOM     49  CA  ALA A   2      19.535   9.161  -8.706  0.00  0.00    +0.149 C 
ATOM     50  CB  ALA A   2      19.656   7.971  -7.779  0.00  0.00    +0.031 C 
BRANCH  49  52
ATOM     51  C   LEU A   1      20.655  10.024 -10.700  0.00  0.00    +0.238 C 
ATOM     52  N   ALA A   2      20.587   9.111  -9.730  0.00  0.00    -0.297 N 
ATOM     53  H   ALA A   2      21.293   8.348  -9.698  0.00  0.00    +0.150 HD
ATOM     54  O   LEU A   1      19.861  10.953 -10.780  0.00  0.00    -0.274 OA
BRANCH  51  55
ATOM     55  CA  LEU A   1      21.781   9.890 -11.731  0.00  0.00    +0.145 C 
BRANCH  55  56
ATOM     56  N   LEU A   1      21.250   9.830 -13.090  0.00  0.00    -0.238 NA
ATOM     57  H   LEU A   1      21.552  10.533 -13.794  0.00  0.00    +0.142 HD
ENDBRANCH  55  56
BRANCH  55  58
ATOM     58  CB  LEU A   1      22.769  11.075 -11.601  0.00  0.00    +0.026 C 
BRANCH  58  59
ATOM     59  CG  LEU A   1      23.379  11.268 -10.210  0.00  0.00    +0.002 C 
ATOM     60  CD2 LEU A   1      24.222  10.084  -9.730  0.00  0.00    +0.000 C 
ATOM     61  CD1 LEU A   1      24.247  12.550 -10.214  0.00  0.00    +0.000 C 
ENDBRANCH  58  59
ENDBRANCH  55  58
ENDBRANCH  51  55
ENDBRANCH  49  52
ENDBRANCH  45  49
ENDBRANCH  44  47
BRANCH  44  62
ATOM     62  CB  MET A   3      17.487  13.253  -7.062  0.00  0.00    +0.041 C 
BRANCH  62  63
ATOM     63  CG  MET A   3      17.315  13.763  -8.495  0.00  0.00    +0.060 C 
BRANCH  63  64
ATOM     64  SD  MET A   3      16.043  15.031  -8.502  0.00  0.00    -0.139 S 
ATOM     65  CE  MET A   3      16.968  16.254  -7.600  0.00  0.00    +0.069 C 
ENDBRANCH  63  64
ENDBRANCH  62  63
ENDBRANCH  44  62
ENDBRANCH  40  44
ENDBRANCH  39  42
BRANCH  39  66
ATOM     66  CB  SER A   4      21.597  11.737  -3.438  0.00  0.00    +0.166 C 
BRANCH  66  67
ATOM     67  OG  SER A   4      22.154  11.772  -2.133  0.00  0.00    -0.380 OA
ATOM     68  H   SER A   4      22.857  11.079  -2.057  0.00  0.00    +0.211 HD
ENDBRANCH  66  67
ENDBRANCH  39  66
ENDBRANCH   1  39
TORSDOF 29
REMARK  Name = ../refined-set-2016/3cow/3cow_pocket.pdb
REMARK  226 active torsions:
REMARK  status: ('A' for Active; 'I' for Inactive)
REMARK    1  A    between atoms: _1  and  _3
REMARK    2  A    between atoms: _3  and  _4
REMARK    3  A    between atoms: _3  and  _6
REMARK    4  A    between atoms: _10  and  _11
REMARK    5  A    between atoms: _16  and  _18
REMARK    6  A    between atoms: _18  and  _19
REMARK    7  A    between atoms: _18  and  _21
REMARK    8  A    between atoms: _21  and  _22
REMARK    9  A    between atoms: _25  and  _27
REMARK   10  A    between atoms: _27  and  _28
REMARK   11  A    between atoms: _27  and  _30
REMARK   12  A    between atoms: _30  and  _31
REMARK   13  A    between atoms: _31  and  _32
REMARK   14  A    between atoms: _34  and  _36
REMARK   15  A    between atoms: _36  and  _37
REMARK   16  A    between atoms: _39  and  _41
REMARK   17  A    between atoms: _41  and  _42
REMARK   18  A    between atoms: _45  and  _47
REMARK   19  A    between atoms: _47  and  _48
REMARK   20  A    between atoms: _47  and  _50
REMARK   21  A    between atoms: _50  and  _51
REMARK   22  A    between atoms: _54  and  _56
REMARK   23  A    between atoms: _56  and  _57
REMARK   24  A    between atoms: _56  and  _59
REMARK   25  A    between atoms: _59  and  _60
REMARK   26  A    between atoms: _65  and  _67
REMARK   27  A    between atoms: _67  and  _68
REMARK   28  A    between atoms: _67  and  _70
REMARK   29  A    between atoms: _70  and  _71
REMARK   30  A    between atoms: _71  and  _72
REMARK   31  A    between atoms: _75  and  _77
REMARK   32  A    between atoms: _77  and  _78
REMARK   33  A    between atoms: _80  and  _82
REMARK   34  A    between atoms: _82  and  _83
REMARK   35  A    between atoms: _82  and  _85
REMARK   36  A    between atoms: _85  and  _86
REMARK   37  A    between atoms: _91  and  _93
REMARK   38  A    between atoms: _93  and  _94
REMARK   39  A    between atoms: _93  and  _96
REMARK   40  A    between atoms: _96  and  _97
REMARK   41  A    between atoms: _100  and  _102
REMARK   42  A    between atoms: _102  and  _103
REMARK   43  A    between atoms: _106  and  _108
REMARK   44  A    between atoms: _108  and  _109
REMARK   45  A    between atoms: _108  and  _111
REMARK   46  A    between atoms: _111  and  _112
REMARK   47  A    between atoms: _115  and  _117
REMARK   48  A    between atoms: _117  and  _118
REMARK   49  A    between atoms: _117  and  _120
REMARK   50  A    between atoms: _123  and  _125
REMARK   51  A    between atoms: _125  and  _126
REMARK   52  A    between atoms: _125  and  _128
REMARK   53  A    between atoms: _128  and  _129
REMARK   54  A    between atoms: _131  and  _133
REMARK   55  A    between atoms: _133  and  _134
REMARK   56  A    between atoms: _133  and  _136
REMARK   57  A    between atoms: _136  and  _137
REMARK   58  A    between atoms: _140  and  _142
REMARK   59  A    between atoms: _142  and  _143
REMARK   60  A    between atoms: _142  and  _145
REMARK   61  A    between atoms: _145  and  _146
REMARK   62  A    between atoms: _152  and  _154
REMARK   63  A    between atoms: _154  and  _155
REMARK   64  A    between atoms: _154  and  _157
REMARK   65  A    between atoms: _160  and  _162
REMARK   66  A    between atoms: _162  and  _163
REMARK   67  A    between atoms: _162  and  _165
REMARK   68  A    between atoms: _165  and  _166
REMARK   69  A    between atoms: _171  and  _173
REMARK   70  A    between atoms: _173  and  _174
REMARK   71  A    between atoms: _173  and  _176
REMARK   72  A    between atoms: _176  and  _177
REMARK   73  A    between atoms: _177  and  _178
REMARK   74  A    between atoms: _183  and  _185
REMARK   75  A    between atoms: _185  and  _186
REMARK   76  A    between atoms: _185  and  _188
REMARK   77  A    between atoms: _188  and  _189
REMARK   78  A    between atoms: _195  and  _197
REMARK   79  A    between atoms: _197  and  _198
REMARK   80  A    between atoms: _197  and  _200
REMARK   81  A    between atoms: _200  and  _201
REMARK   82  A    between atoms: _206  and  _207
REMARK   83  A    between atoms: _209  and  _211
REMARK   84  A    between atoms: _211  and  _212
REMARK   85  A    between atoms: _211  and  _214
REMARK   86  A    between atoms: _214  and  _215
REMARK   87  A    between atoms: _220  and  _221
REMARK   88  A    between atoms: _223  and  _225
REMARK   89  A    between atoms: _225  and  _226
REMARK   90  A    between atoms: _225  and  _228
REMARK   91  A    between atoms: _228  and  _229
REMARK   92  A    between atoms: _234  and  _236
REMARK   93  A    between atoms: _236  and  _237
REMARK   94  A    between atoms: _236  and  _239
REMARK   95  A    between atoms: _239  and  _240
REMARK   96  A    between atoms: _246  and  _248
REMARK   97  A    between atoms: _248  and  _249
REMARK   98  A    between atoms: _251  and  _253
REMARK   99  A    between atoms: _253  and  _254
REMARK  100  A    between atoms: _253  and  _256
REMARK  101  A    between atoms: _259  and  _261
REMARK  102  A    between atoms: _261  and  _262
REMARK  103  A    between atoms: _261  and  _264
REMARK  104  A    between atoms: _264  and  _265
REMARK  105  A    between atoms: _268  and  _270
REMARK  106  A    between atoms: _270  and  _271
REMARK  107  A    between atoms: _270  and  _273
REMARK  108  A    between atoms: _273  and  _274
REMARK  109  A    between atoms: _277  and  _279
REMARK  110  A    between atoms: _279  and  _280
REMARK  111  A    between atoms: _279  and  _282
REMARK  112  A    between atoms: _285  and  _287
REMARK  113  A    between atoms: _287  and  _288
REMARK  114  A    between atoms: _287  and  _290
REMARK  115  A    between atoms: _293  and  _295
REMARK  116  A    between atoms: _295  and  _296
REMARK  117  A    between atoms: _295  and  _298
REMARK  118  A    between atoms: _298  and  _299
REMARK  119  A    between atoms: _302  and  _304
REMARK  120  A    between atoms: _304  and  _305
REMARK  121  A    between atoms: _304  and  _307
REMARK  122  A    between atoms: _307  and  _308
REMARK  123  A    between atoms: _311  and  _313
REMARK  124  A    between atoms: _313  and  _314
REMARK  125  A    between atoms: _313  and  _316
REMARK  126  A    between atoms: _316  and  _317
REMARK  127  A    between atoms: _323  and  _325
REMARK  128  A    between atoms: _325  and  _326
REMARK  129  A    between atoms: _325  and  _328
REMARK  130  A    between atoms: _328  and  _329
REMARK  131  A    between atoms: _335  and  _337
REMARK  132  A    between atoms: _337  and  _338
REMARK  133  A    between atoms: _340  and  _342
REMARK  134  A    between atoms: _342  and  _343
REMARK  135  A    between atoms: _342  and  _345
REMARK  136  A    between atoms: _345  and  _346
REMARK  137  A    between atoms: _346  and  _347
REMARK  138  A    between atoms: _350  and  _352
REMARK  139  A    between atoms: _352  and  _353
REMARK  140  A    between atoms: _352  and  _355
REMARK  141  A    between atoms: _355  and  _356
REMARK  142  A    between atoms: _356  and  _357
REMARK  143  A    between atoms: _357  and  _358
REMARK  144  A    between atoms: _358  and  _359
REMARK  145  A    between atoms: _363  and  _365
REMARK  146  A    between atoms: _365  and  _366
REMARK  147  A    between atoms: _365  and  _368
REMARK  148  A    between atoms: _368  and  _369
REMARK  149  A    between atoms: _372  and  _374
REMARK  150  A    between atoms: _374  and  _375
REMARK  151  A    between atoms: _374  and  _377
REMARK  152  A    between atoms: _377  and  _378
REMARK  153  A    between atoms: _383  and  _384
REMARK  154  A    between atoms: _386  and  _388
REMARK  155  A    between atoms: _388  and  _389
REMARK  156  A    between atoms: _388  and  _391
REMARK  157  A    between atoms: _391  and  _392
REMARK  158  A    between atoms: _392  and  _393
REMARK  159  A    between atoms: _398  and  _400
REMARK  160  A    between atoms: _400  and  _401
REMARK  161  A    between atoms: _400  and  _403
REMARK  162  A    between atoms: _403  and  _404
REMARK  163  A    between atoms: _407  and  _409
REMARK  164  A    between atoms: _409  and  _410
REMARK  165  A    between atoms: _409  and  _412
REMARK  166  A    between atoms: _412  and  _413
REMARK  167  A    between atoms: _416  and  _418
REMARK  168  A    between atoms: _418  and  _419
REMARK  169  A    between atoms: _418  and  _421
REMARK  170  A    between atoms: _424  and  _426
REMARK  171  A    between atoms: _426  and  _427
REMARK  172  A    between atoms: _429  and  _431
REMARK  173  A    between atoms: _431  and  _432
REMARK  174  A    between atoms: _431  and  _434
REMARK  175  A    between atoms: _438  and  _439
REMARK  176  A    between atoms: _444  and  _446
REMARK  177  A    between atoms: _446  and  _447
REMARK  178  A    between atoms: _446  and  _449
REMARK  179  A    between atoms: _449  and  _450
REMARK  180  A    between atoms: _453  and  _455
REMARK  181  A    between atoms: _455  and  _456
REMARK  182  A    between atoms: _455  and  _458
REMARK  183  A    between atoms: _461  and  _463
REMARK  184  A    between atoms: _463  and  _464
REMARK  185  A    between atoms: _463  and  _466
REMARK  186  A    between atoms: _466  and  _467
REMARK  187  A    between atoms: _467  and  _468
REMARK  188  A    between atoms: _468  and  _469
REMARK  189  A    between atoms: _478  and  _480
REMARK  190  A    between atoms: _480  and  _481
REMARK  191  A    between atoms: _480  and  _483
REMARK  192  A    between atoms: _483  and  _484
REMARK  193  A    between atoms: _484  and  _485
REMARK  194  A    between atoms: _488  and  _490
REMARK  195  A    between atoms: _490  and  _491
REMARK  196  A    between atoms: _490  and  _493
REMARK  197  A    between atoms: _493  and  _494
REMARK  198  A    between atoms: _497  and  _499
REMARK  199  A    between atoms: _499  and  _500
REMARK  200  A    between atoms: _503  and  _505
REMARK  201  A    between atoms: _505  and  _506
REMARK  202  A    between atoms: _505  and  _508
REMARK  203  A    between atoms: _508  and  _509
REMARK  204  A    between atoms: _509  and  _510
REMARK  205  A    between atoms: _512  and  _514
REMARK  206  A    between atoms: _514  and  _515
REMARK  207  A    between atoms: _514  and  _517
REMARK  208  A    between atoms: _517  and  _518
REMARK  209  A    between atoms: _520  and  _522
REMARK  210  A    between atoms: _522  and  _523
REMARK  211  A    between atoms: _522  and  _525
REMARK  212  A    between atoms: _525  and  _526
REMARK  213  A    between atoms: _528  and  _530
REMARK  214  A    between atoms: _530  and  _531
REMARK  215  A    between atoms: _530  and  _533
REMARK  216  A    between atoms: _533  and  _534
REMARK  217  A    between atoms: _534  and  _535
REMARK  218  A    between atoms: _535  and  _536
REMARK  219  A    between atoms: _545  and  _547
REMARK  220  A    between atoms: _547  and  _548
REMARK  221  A    between atoms: _547  and  _550
REMARK  222  A    between atoms: _550  and  _551
REMARK  223  A    between atoms: _556  and  _558
REMARK  224  A    between atoms: _558  and  _559
REMARK  225  A    between atoms: _558  and  _561
REMARK  226  A    between atoms: _561  and  _562
REMARK                            x       y       z     vdW  Elec       q    Type
REMARK                         _______ _______ _______ _____ _____    ______ ____
ROOT
ATOM      1  CB  ASN A   1      18.662  -0.164  -5.689  0.00  0.00    +0.110 C 
ENDROOT
BRANCH   1   2
ATOM      2  CG  ASN A   1      17.435   0.624  -5.299  0.00  0.00    +0.221 C 
ATOM      3  ND2 ASN A   1      17.626   1.675  -4.521  0.00  0.00    -0.329 N 
ATOM      4 HD21 ASN A   1      18.584   1.911  -4.192  0.00  0.00    +0.145 HD
ATOM      5 HD22 ASN A   1      16.818   2.266  -4.238  0.00  0.00    +0.145 HD
ATOM      6  OD1 ASN A   1      16.324   0.303  -5.714  0.00  0.00    -0.275 OA
ENDBRANCH   1   2
BRANCH   1   7
ATOM      7  CA  ASN A   1      19.227   0.287  -7.053  0.00  0.00    +0.142 C 
BRANCH   7   8
ATOM      8  N   ASN A   1      19.757   1.632  -6.952  0.00  0.00    -0.239 NA
ATOM      9  H   ASN A   1      19.176   2.441  -7.250  0.00  0.00    +0.142 HD
ENDBRANCH   7   8
BRANCH   7  10
ATOM     10  C   ASN A   1      18.166   0.231  -8.144  0.00  0.00    +0.225 C 
ATOM     11  O   ASN A   1      17.629   1.251  -8.551  0.00  0.00    -0.287 OA
ENDBRANCH   7  10
ENDBRANCH   1   7
TORSDOF 4
REMARK  Name = ../refined-set-2016/3cow/3cow_pocket.pdb
REMARK  226 active torsions:
REMARK  status: ('A' for Active; 'I' for Inactive)
REMARK    1  A    between atoms: _1  and  _3
REMARK    2  A    between atoms: _3  and  _4
REMARK    3  A    between atoms: _3  and  _6
REMARK    4  A    between atoms: _10  and  _11
REMARK    5  A    between atoms: _16  and  _18
REMARK    6  A    between atoms: _18  and  _19
REMARK    7  A    between atoms: _18  and  _21
REMARK    8  A    between atoms: _21  and  _22
REMARK    9  A    between atoms: _25  and  _27
REMARK   10  A    between atoms: _27  and  _28
REMARK   11  A    between atoms: _27  and  _30
REMARK   12  A    between atoms: _30  and  _31
REMARK   13  A    between atoms: _31  and  _32
REMARK   14  A    between atoms: _34  and  _36
REMARK   15  A    between atoms: _36  and  _37
REMARK   16  A    between atoms: _39  and  _41
REMARK   17  A    between atoms: _41  and  _42
REMARK   18  A    between atoms: _45  and  _47
REMARK   19  A    between atoms: _47  and  _48
REMARK   20  A    between atoms: _47  and  _50
REMARK   21  A    between atoms: _50  and  _51
REMARK   22  A    between atoms: _54  and  _56
REMARK   23  A    between atoms: _56  and  _57
REMARK   24  A    between atoms: _56  and  _59
REMARK   25  A    between atoms: _59  and  _60
REMARK   26  A    between atoms: _65  and  _67
REMARK   27  A    between atoms: _67  and  _68
REMARK   28  A    between atoms: _67  and  _70
REMARK   29  A    between atoms: _70  and  _71
REMARK   30  A    between atoms: _71  and  _72
REMARK   31  A    between atoms: _75  and  _77
REMARK   32  A    between atoms: _77  and  _78
REMARK   33  A    between atoms: _80  and  _82
REMARK   34  A    between atoms: _82  and  _83
REMARK   35  A    between atoms: _82  and  _85
REMARK   36  A    between atoms: _85  and  _86
REMARK   37  A    between atoms: _91  and  _93
REMARK   38  A    between atoms: _93  and  _94
REMARK   39  A    between atoms: _93  and  _96
REMARK   40  A    between atoms: _96  and  _97
REMARK   41  A    between atoms: _100  and  _102
REMARK   42  A    between atoms: _102  and  _103
REMARK   43  A    between atoms: _106  and  _108
REMARK   44  A    between atoms: _108  and  _109
REMARK   45  A    between atoms: _108  and  _111
REMARK   46  A    between atoms: _111  and  _112
REMARK   47  A    between atoms: _115  and  _117
REMARK   48  A    between atoms: _117  and  _118
REMARK   49  A    between atoms: _117  and  _120
REMARK   50  A    between atoms: _123  and  _125
REMARK   51  A    between atoms: _125  and  _126
REMARK   52  A    between atoms: _125  and  _128
REMARK   53  A    between atoms: _128  and  _129
REMARK   54  A    between atoms: _131  and  _133
REMARK   55  A    between atoms: _133  and  _134
REMARK   56  A    between atoms: _133  and  _136
REMARK   57  A    between atoms: _136  and  _137
REMARK   58  A    between atoms: _140  and  _142
REMARK   59  A    between atoms: _142  and  _143
REMARK   60  A    between atoms: _142  and  _145
REMARK   61  A    between atoms: _145  and  _146
REMARK   62  A    between atoms: _152  and  _154
REMARK   63  A    between atoms: _154  and  _155
REMARK   64  A    between atoms: _154  and  _157
REMARK   65  A    between atoms: _160  and  _162
REMARK   66  A    between atoms: _162  and  _163
REMARK   67  A    between atoms: _162  and  _165
REMARK   68  A    between atoms: _165  and  _166
REMARK   69  A    between atoms: _171  and  _173
REMARK   70  A    between atoms: _173  and  _174
REMARK   71  A    between atoms: _173  and  _176
REMARK   72  A    between atoms: _176  and  _177
REMARK   73  A    between atoms: _177  and  _178
REMARK   74  A    between atoms: _183  and  _185
REMARK   75  A    between atoms: _185  and  _186
REMARK   76  A    between atoms: _185  and  _188
REMARK   77  A    between atoms: _188  and  _189
REMARK   78  A    between atoms: _195  and  _197
REMARK   79  A    between atoms: _197  and  _198
REMARK   80  A    between atoms: _197  and  _200
REMARK   81  A    between atoms: _200  and  _201
REMARK   82  A    between atoms: _206  and  _207
REMARK   83  A    between atoms: _209  and  _211
REMARK   84  A    between atoms: _211  and  _212
REMARK   85  A    between atoms: _211  and  _214
REMARK   86  A    between atoms: _214  and  _215
REMARK   87  A    between atoms: _220  and  _221
REMARK   88  A    between atoms: _223  and  _225
REMARK   89  A    between atoms: _225  and  _226
REMARK   90  A    between atoms: _225  and  _228
REMARK   91  A    between atoms: _228  and  _229
REMARK   92  A    between atoms: _234  and  _236
REMARK   93  A    between atoms: _236  and  _237
REMARK   94  A    between atoms: _236  and  _239
REMARK   95  A    between atoms: _239  and  _240
REMARK   96  A    between atoms: _246  and  _248
REMARK   97  A    between atoms: _248  and  _249
REMARK   98  A    between atoms: _251  and  _253
REMARK   99  A    between atoms: _253  and  _254
REMARK  100  A    between atoms: _253  and  _256
REMARK  101  A    between atoms: _259  and  _261
REMARK  102  A    between atoms: _261  and  _262
REMARK  103  A    between atoms: _261  and  _264
REMARK  104  A    between atoms: _264  and  _265
REMARK  105  A    between atoms: _268  and  _270
REMARK  106  A    between atoms: _270  and  _271
REMARK  107  A    between atoms: _270  and  _273
REMARK  108  A    between atoms: _273  and  _274
REMARK  109  A    between atoms: _277  and  _279
REMARK  110  A    between atoms: _279  and  _280
REMARK  111  A    between atoms: _279  and  _282
REMARK  112  A    between atoms: _285  and  _287
REMARK  113  A    between atoms: _287  and  _288
REMARK  114  A    between atoms: _287  and  _290
REMARK  115  A    between atoms: _293  and  _295
REMARK  116  A    between atoms: _295  and  _296
REMARK  117  A    between atoms: _295  and  _298
REMARK  118  A    between atoms: _298  and  _299
REMARK  119  A    between atoms: _302  and  _304
REMARK  120  A    between atoms: _304  and  _305
REMARK  121  A    between atoms: _304  and  _307
REMARK  122  A    between atoms: _307  and  _308
REMARK  123  A    between atoms: _311  and  _313
REMARK  124  A    between atoms: _313  and  _314
REMARK  125  A    between atoms: _313  and  _316
REMARK  126  A    between atoms: _316  and  _317
REMARK  127  A    between atoms: _323  and  _325
REMARK  128  A    between atoms: _325  and  _326
REMARK  129  A    between atoms: _325  and  _328
REMARK  130  A    between atoms: _328  and  _329
REMARK  131  A    between atoms: _335  and  _337
REMARK  132  A    between atoms: _337  and  _338
REMARK  133  A    between atoms: _340  and  _342
REMARK  134  A    between atoms: _342  and  _343
REMARK  135  A    between atoms: _342  and  _345
REMARK  136  A    between atoms: _345  and  _346
REMARK  137  A    between atoms: _346  and  _347
REMARK  138  A    between atoms: _350  and  _352
REMARK  139  A    between atoms: _352  and  _353
REMARK  140  A    between atoms: _352  and  _355
REMARK  141  A    between atoms: _355  and  _356
REMARK  142  A    between atoms: _356  and  _357
REMARK  143  A    between atoms: _357  and  _358
REMARK  144  A    between atoms: _358  and  _359
REMARK  145  A    between atoms: _363  and  _365
REMARK  146  A    between atoms: _365  and  _366
REMARK  147  A    between atoms: _365  and  _368
REMARK  148  A    between atoms: _368  and  _369
REMARK  149  A    between atoms: _372  and  _374
REMARK  150  A    between atoms: _374  and  _375
REMARK  151  A    between atoms: _374  and  _377
REMARK  152  A    between atoms: _377  and  _378
REMARK  153  A    between atoms: _383  and  _384
REMARK  154  A    between atoms: _386  and  _388
REMARK  155  A    between atoms: _388  and  _389
REMARK  156  A    between atoms: _388  and  _391
REMARK  157  A    between atoms: _391  and  _392
REMARK  158  A    between atoms: _392  and  _393
REMARK  159  A    between atoms: _398  and  _400
REMARK  160  A    between atoms: _400  and  _401
REMARK  161  A    between atoms: _400  and  _403
REMARK  162  A    between atoms: _403  and  _404
REMARK  163  A    between atoms: _407  and  _409
REMARK  164  A    between atoms: _409  and  _410
REMARK  165  A    between atoms: _409  and  _412
REMARK  166  A    between atoms: _412  and  _413
REMARK  167  A    between atoms: _416  and  _418
REMARK  168  A    between atoms: _418  and  _419
REMARK  169  A    between atoms: _418  and  _421
REMARK  170  A    between atoms: _424  and  _426
REMARK  171  A    between atoms: _426  and  _427
REMARK  172  A    between atoms: _429  and  _431
REMARK  173  A    between atoms: _431  and  _432
REMARK  174  A    between atoms: _431  and  _434
REMARK  175  A    between atoms: _438  and  _439
REMARK  176  A    between atoms: _444  and  _446
REMARK  177  A    between atoms: _446  and  _447
REMARK  178  A    between atoms: _446  and  _449
REMARK  179  A    between atoms: _449  and  _450
REMARK  180  A    between atoms: _453  and  _455
REMARK  181  A    between atoms: _455  and  _456
REMARK  182  A    between atoms: _455  and  _458
REMARK  183  A    between atoms: _461  and  _463
REMARK  184  A    between atoms: _463  and  _464
REMARK  185  A    between atoms: _463  and  _466
REMARK  186  A    between atoms: _466  and  _467
REMARK  187  A    between atoms: _467  and  _468
REMARK  188  A    between atoms: _468  and  _469
REMARK  189  A    between atoms: _478  and  _480
REMARK  190  A    between atoms: _480  and  _481
REMARK  191  A    between atoms: _480  and  _483
REMARK  192  A    between atoms: _483  and  _484
REMARK  193  A    between atoms: _484  and  _485
REMARK  194  A    between atoms: _488  and  _490
REMARK  195  A    between atoms: _490  and  _491
REMARK  196  A    between atoms: _490  and  _493
REMARK  197  A    between atoms: _493  and  _494
REMARK  198  A    between atoms: _497  and  _499
REMARK  199  A    between atoms: _499  and  _500
REMARK  200  A    between atoms: _503  and  _505
REMARK  201  A    between atoms: _505  and  _506
REMARK  202  A    between atoms: _505  and  _508
REMARK  203  A    between atoms: _508  and  _509
REMARK  204  A    between atoms: _509  and  _510
REMARK  205  A    between atoms: _512  and  _514
REMARK  206  A    between atoms: _514  and  _515
REMARK  207  A    between atoms: _514  and  _517
REMARK  208  A    between atoms: _517  and  _518
REMARK  209  A    between atoms: _520  and  _522
REMARK  210  A    between atoms: _522  and  _523
REMARK  211  A    between atoms: _522  and  _525
REMARK  212  A    between atoms: _525  and  _526
REMARK  213  A    between atoms: _528  and  _530
REMARK  214  A    between atoms: _530  and  _531
REMARK  215  A    between atoms: _530  and  _533
REMARK  216  A    between atoms: _533  and  _534
REMARK  217  A    between atoms: _534  and  _535
REMARK  218  A    between atoms: _535  and  _536
REMARK  219  A    between atoms: _545  and  _547
REMARK  220  A    between atoms: _547  and  _548
REMARK  221  A    between atoms: _547  and  _550
REMARK  222  A    between atoms: _550  and  _551
REMARK  223  A    between atoms: _556  and  _558
REMARK  224  A    between atoms: _558  and  _559
REMARK  225  A    between atoms: _558  and  _561
REMARK  226  A    between atoms: _561  and  _562
REMARK                            x       y       z     vdW  Elec       q    Type
REMARK                         _______ _______ _______ _____ _____    ______ ____
ROOT
ATOM      1  O   HOH     1      18.539   1.963   1.925  0.00  0.00    +0.000 OA
ENDROOT
TORSDOF 0
REMARK  Name = ../refined-set-2016/3cow/3cow_pocket.pdb
REMARK  226 active torsions:
REMARK  status: ('A' for Active; 'I' for Inactive)
REMARK    1  A    between atoms: _1  and  _3
REMARK    2  A    between atoms: _3  and  _4
REMARK    3  A    between atoms: _3  and  _6
REMARK    4  A    between atoms: _10  and  _11
REMARK    5  A    between atoms: _16  and  _18
REMARK    6  A    between atoms: _18  and  _19
REMARK    7  A    between atoms: _18  and  _21
REMARK    8  A    between atoms: _21  and  _22
REMARK    9  A    between atoms: _25  and  _27
REMARK   10  A    between atoms: _27  and  _28
REMARK   11  A    between atoms: _27  and  _30
REMARK   12  A    between atoms: _30  and  _31
REMARK   13  A    between atoms: _31  and  _32
REMARK   14  A    between atoms: _34  and  _36
REMARK   15  A    between atoms: _36  and  _37
REMARK   16  A    between atoms: _39  and  _41
REMARK   17  A    between atoms: _41  and  _42
REMARK   18  A    between atoms: _45  and  _47
REMARK   19  A    between atoms: _47  and  _48
REMARK   20  A    between atoms: _47  and  _50
REMARK   21  A    between atoms: _50  and  _51
REMARK   22  A    between atoms: _54  and  _56
REMARK   23  A    between atoms: _56  and  _57
REMARK   24  A    between atoms: _56  and  _59
REMARK   25  A    between atoms: _59  and  _60
REMARK   26  A    between atoms: _65  and  _67
REMARK   27  A    between atoms: _67  and  _68
REMARK   28  A    between atoms: _67  and  _70
REMARK   29  A    between atoms: _70  and  _71
REMARK   30  A    between atoms: _71  and  _72
REMARK   31  A    between atoms: _75  and  _77
REMARK   32  A    between atoms: _77  and  _78
REMARK   33  A    between atoms: _80  and  _82
REMARK   34  A    between atoms: _82  and  _83
REMARK   35  A    between atoms: _82  and  _85
REMARK   36  A    between atoms: _85  and  _86
REMARK   37  A    between atoms: _91  and  _93
REMARK   38  A    between atoms: _93  and  _94
REMARK   39  A    between atoms: _93  and  _96
REMARK   40  A    between atoms: _96  and  _97
REMARK   41  A    between atoms: _100  and  _102
REMARK   42  A    between atoms: _102  and  _103
REMARK   43  A    between atoms: _106  and  _108
REMARK   44  A    between atoms: _108  and  _109
REMARK   45  A    between atoms: _108  and  _111
REMARK   46  A    between atoms: _111  and  _112
REMARK   47  A    between atoms: _115  and  _117
REMARK   48  A    between atoms: _117  and  _118
REMARK   49  A    between atoms: _117  and  _120
REMARK   50  A    between atoms: _123  and  _125
REMARK   51  A    between atoms: _125  and  _126
REMARK   52  A    between atoms: _125  and  _128
REMARK   53  A    between atoms: _128  and  _129
REMARK   54  A    between atoms: _131  and  _133
REMARK   55  A    between atoms: _133  and  _134
REMARK   56  A    between atoms: _133  and  _136
REMARK   57  A    between atoms: _136  and  _137
REMARK   58  A    between atoms: _140  and  _142
REMARK   59  A    between atoms: _142  and  _143
REMARK   60  A    between atoms: _142  and  _145
REMARK   61  A    between atoms: _145  and  _146
REMARK   62  A    between atoms: _152  and  _154
REMARK   63  A    between atoms: _154  and  _155
REMARK   64  A    between atoms: _154  and  _157
REMARK   65  A    between atoms: _160  and  _162
REMARK   66  A    between atoms: _162  and  _163
REMARK   67  A    between atoms: _162  and  _165
REMARK   68  A    between atoms: _165  and  _166
REMARK   69  A    between atoms: _171  and  _173
REMARK   70  A    between atoms: _173  and  _174
REMARK   71  A    between atoms: _173  and  _176
REMARK   72  A    between atoms: _176  and  _177
REMARK   73  A    between atoms: _177  and  _178
REMARK   74  A    between atoms: _183  and  _185
REMARK   75  A    between atoms: _185  and  _186
REMARK   76  A    between atoms: _185  and  _188
REMARK   77  A    between atoms: _188  and  _189
REMARK   78  A    between atoms: _195  and  _197
REMARK   79  A    between atoms: _197  and  _198
REMARK   80  A    between atoms: _197  and  _200
REMARK   81  A    between atoms: _200  and  _201
REMARK   82  A    between atoms: _206  and  _207
REMARK   83  A    between atoms: _209  and  _211
REMARK   84  A    between atoms: _211  and  _212
REMARK   85  A    between atoms: _211  and  _214
REMARK   86  A    between atoms: _214  and  _215
REMARK   87  A    between atoms: _220  and  _221
REMARK   88  A    between atoms: _223  and  _225
REMARK   89  A    between atoms: _225  and  _226
REMARK   90  A    between atoms: _225  and  _228
REMARK   91  A    between atoms: _228  and  _229
REMARK   92  A    between atoms: _234  and  _236
REMARK   93  A    between atoms: _236  and  _237
REMARK   94  A    between atoms: _236  and  _239
REMARK   95  A    between atoms: _239  and  _240
REMARK   96  A    between atoms: _246  and  _248
REMARK   97  A    between atoms: _248  and  _249
REMARK   98  A    between atoms: _251  and  _253
REMARK   99  A    between atoms: _253  and  _254
REMARK  100  A    between atoms: _253  and  _256
REMARK  101  A    between atoms: _259  and  _261
REMARK  102  A    between atoms: _261  and  _262
REMARK  103  A    between atoms: _261  and  _264
REMARK  104  A    between atoms: _264  and  _265
REMARK  105  A    between atoms: _268  and  _270
REMARK  106  A    between atoms: _270  and  _271
REMARK  107  A    between atoms: _270  and  _273
REMARK  108  A    between atoms: _273  and  _274
REMARK  109  A    between atoms: _277  and  _279
REMARK  110  A    between atoms: _279  and  _280
REMARK  111  A    between atoms: _279  and  _282
REMARK  112  A    between atoms: _285  and  _287
REMARK  113  A    between atoms: _287  and  _288
REMARK  114  A    between atoms: _287  and  _290
REMARK  115  A    between atoms: _293  and  _295
REMARK  116  A    between atoms: _295  and  _296
REMARK  117  A    between atoms: _295  and  _298
REMARK  118  A    between atoms: _298  and  _299
REMARK  119  A    between atoms: _302  and  _304
REMARK  120  A    between atoms: _304  and  _305
REMARK  121  A    between atoms: _304  and  _307
REMARK  122  A    between atoms: _307  and  _308
REMARK  123  A    between atoms: _311  and  _313
REMARK  124  A    between atoms: _313  and  _314
REMARK  125  A    between atoms: _313  and  _316
REMARK  126  A    between atoms: _316  and  _317
REMARK  127  A    between atoms: _323  and  _325
REMARK  128  A    between atoms: _325  and  _326
REMARK  129  A    between atoms: _325  and  _328
REMARK  130  A    between atoms: _328  and  _329
REMARK  131  A    between atoms: _335  and  _337
REMARK  132  A    between atoms: _337  and  _338
REMARK  133  A    between atoms: _340  and  _342
REMARK  134  A    between atoms: _342  and  _343
REMARK  135  A    between atoms: _342  and  _345
REMARK  136  A    between atoms: _345  and  _346
REMARK  137  A    between atoms: _346  and  _347
REMARK  138  A    between atoms: _350  and  _352
REMARK  139  A    between atoms: _352  and  _353
REMARK  140  A    between atoms: _352  and  _355
REMARK  141  A    between atoms: _355  and  _356
REMARK  142  A    between atoms: _356  and  _357
REMARK  143  A    between atoms: _357  and  _358
REMARK  144  A    between atoms: _358  and  _359
REMARK  145  A    between atoms: _363  and  _365
REMARK  146  A    between atoms: _365  and  _366
REMARK  147  A    between atoms: _365  and  _368
REMARK  148  A    between atoms: _368  and  _369
REMARK  149  A    between atoms: _372  and  _374
REMARK  150  A    between atoms: _374  and  _375
REMARK  151  A    between atoms: _374  and  _377
REMARK  152  A    between atoms: _377  and  _378
REMARK  153  A    between atoms: _383  and  _384
REMARK  154  A    between atoms: _386  and  _388
REMARK  155  A    between atoms: _388  and  _389
REMARK  156  A    between atoms: _388  and  _391
REMARK  157  A    between atoms: _391  and  _392
REMARK  158  A    between atoms: _392  and  _393
REMARK  159  A    between atoms: _398  and  _400
REMARK  160  A    between atoms: _400  and  _401
REMARK  161  A    between atoms: _400  and  _403
REMARK  162  A    between atoms: _403  and  _404
REMARK  163  A    between atoms: _407  and  _409
REMARK  164  A    between atoms: _409  and  _410
REMARK  165  A    between atoms: _409  and  _412
REMARK  166  A    between atoms: _412  and  _413
REMARK  167  A    between atoms: _416  and  _418
REMARK  168  A    between atoms: _418  and  _419
REMARK  169  A    between atoms: _418  and  _421
REMARK  170  A    between atoms: _424  and  _426
REMARK  171  A    between atoms: _426  and  _427
REMARK  172  A    between atoms: _429  and  _431
REMARK  173  A    between atoms: _431  and  _432
REMARK  174  A    between atoms: _431  and  _434
REMARK  175  A    between atoms: _438  and  _439
REMARK  176  A    between atoms: _444  and  _446
REMARK  177  A    between atoms: _446  and  _447
REMARK  178  A    between atoms: _446  and  _449
REMARK  179  A    between atoms: _449  and  _450
REMARK  180  A    between atoms: _453  and  _455
REMARK  181  A    between atoms: _455  and  _456
REMARK  182  A    between atoms: _455  and  _458
REMARK  183  A    between atoms: _461  and  _463
REMARK  184  A    between atoms: _463  and  _464
REMARK  185  A    between atoms: _463  and  _466
REMARK  186  A    between atoms: _466  and  _467
REMARK  187  A    between atoms: _467  and  _468
REMARK  188  A    between atoms: _468  and  _469
REMARK  189  A    between atoms: _478  and  _480
REMARK  190  A    between atoms: _480  and  _481
REMARK  191  A    between atoms: _480  and  _483
REMARK  192  A    between atoms: _483  and  _484
REMARK  193  A    between atoms: _484  and  _485
REMARK  194  A    between atoms: _488  and  _490
REMARK  195  A    between atoms: _490  and  _491
REMARK  196  A    between atoms: _490  and  _493
REMARK  197  A    between atoms: _493  and  _494
REMARK  198  A    between atoms: _497  and  _499
REMARK  199  A    between atoms: _499  and  _500
REMARK  200  A    between atoms: _503  and  _505
REMARK  201  A    between atoms: _505  and  _506
REMARK  202  A    between atoms: _505  and  _508
REMARK  203  A    between atoms: _508  and  _509
REMARK  204  A    between atoms: _509  and  _510
REMARK  205  A    between atoms: _512  and  _514
REMARK  206  A    between atoms: _514  and  _515
REMARK  207  A    between atoms: _514  and  _517
REMARK  208  A    between atoms: _517  and  _518
REMARK  209  A    between atoms: _520  and  _522
REMARK  210  A    between atoms: _522  and  _523
REMARK  211  A    between atoms: _522  and  _525
REMARK  212  A    between atoms: _525  and  _526
REMARK  213  A    between atoms: _528  and  _530
REMARK  214  A    between atoms: _530  and  _531
REMARK  215  A    between atoms: _530  and  _533
REMARK  216  A    between atoms: _533  and  _534
REMARK  217  A    between atoms: _534  and  _535
REMARK  218  A    between atoms: _535  and  _536
REMARK  219  A    between atoms: _545  and  _547
REMARK  220  A    between atoms: _547  and  _548
REMARK  221  A    between atoms: _547  and  _550
REMARK  222  A    between atoms: _550  and  _551
REMARK  223  A    between atoms: _556  and  _558
REMARK  224  A    between atoms: _558  and  _559
REMARK  225  A    between atoms: _558  and  _561
REMARK  226  A    between atoms: _561  and  _562
REMARK                            x       y       z     vdW  Elec       q    Type
REMARK                         _______ _______ _______ _____ _____    ______ ____
ROOT
ATOM      1  O   HOH     1      11.934  13.314   9.840  0.00  0.00    +0.000 OA
ENDROOT
TORSDOF 0
REMARK  Name = ../refined-set-2016/3cow/3cow_pocket.pdb
REMARK  226 active torsions:
REMARK  status: ('A' for Active; 'I' for Inactive)
REMARK    1  A    between atoms: _1  and  _3
REMARK    2  A    between atoms: _3  and  _4
REMARK    3  A    between atoms: _3  and  _6
REMARK    4  A    between atoms: _10  and  _11
REMARK    5  A    between atoms: _16  and  _18
REMARK    6  A    between atoms: _18  and  _19
REMARK    7  A    between atoms: _18  and  _21
REMARK    8  A    between atoms: _21  and  _22
REMARK    9  A    between atoms: _25  and  _27
REMARK   10  A    between atoms: _27  and  _28
REMARK   11  A    between atoms: _27  and  _30
REMARK   12  A    between atoms: _30  and  _31
REMARK   13  A    between atoms: _31  and  _32
REMARK   14  A    between atoms: _34  and  _36
REMARK   15  A    between atoms: _36  and  _37
REMARK   16  A    between atoms: _39  and  _41
REMARK   17  A    between atoms: _41  and  _42
REMARK   18  A    between atoms: _45  and  _47
REMARK   19  A    between atoms: _47  and  _48
REMARK   20  A    between atoms: _47  and  _50
REMARK   21  A    between atoms: _50  and  _51
REMARK   22  A    between atoms: _54  and  _56
REMARK   23  A    between atoms: _56  and  _57
REMARK   24  A    between atoms: _56  and  _59
REMARK   25  A    between atoms: _59  and  _60
REMARK   26  A    between atoms: _65  and  _67
REMARK   27  A    between atoms: _67  and  _68
REMARK   28  A    between atoms: _67  and  _70
REMARK   29  A    between atoms: _70  and  _71
REMARK   30  A    between atoms: _71  and  _72
REMARK   31  A    between atoms: _75  and  _77
REMARK   32  A    between atoms: _77  and  _78
REMARK   33  A    between atoms: _80  and  _82
REMARK   34  A    between atoms: _82  and  _83
REMARK   35  A    between atoms: _82  and  _85
REMARK   36  A    between atoms: _85  and  _86
REMARK   37  A    between atoms: _91  and  _93
REMARK   38  A    between atoms: _93  and  _94
REMARK   39  A    between atoms: _93  and  _96
REMARK   40  A    between atoms: _96  and  _97
REMARK   41  A    between atoms: _100  and  _102
REMARK   42  A    between atoms: _102  and  _103
REMARK   43  A    between atoms: _106  and  _108
REMARK   44  A    between atoms: _108  and  _109
REMARK   45  A    between atoms: _108  and  _111
REMARK   46  A    between atoms: _111  and  _112
REMARK   47  A    between atoms: _115  and  _117
REMARK   48  A    between atoms: _117  and  _118
REMARK   49  A    between atoms: _117  and  _120
REMARK   50  A    between atoms: _123  and  _125
REMARK   51  A    between atoms: _125  and  _126
REMARK   52  A    between atoms: _125  and  _128
REMARK   53  A    between atoms: _128  and  _129
REMARK   54  A    between atoms: _131  and  _133
REMARK   55  A    between atoms: _133  and  _134
REMARK   56  A    between atoms: _133  and  _136
REMARK   57  A    between atoms: _136  and  _137
REMARK   58  A    between atoms: _140  and  _142
REMARK   59  A    between atoms: _142  and  _143
REMARK   60  A    between atoms: _142  and  _145
REMARK   61  A    between atoms: _145  and  _146
REMARK   62  A    between atoms: _152  and  _154
REMARK   63  A    between atoms: _154  and  _155
REMARK   64  A    between atoms: _154  and  _157
REMARK   65  A    between atoms: _160  and  _162
REMARK   66  A    between atoms: _162  and  _163
REMARK   67  A    between atoms: _162  and  _165
REMARK   68  A    between atoms: _165  and  _166
REMARK   69  A    between atoms: _171  and  _173
REMARK   70  A    between atoms: _173  and  _174
REMARK   71  A    between atoms: _173  and  _176
REMARK   72  A    between atoms: _176  and  _177
REMARK   73  A    between atoms: _177  and  _178
REMARK   74  A    between atoms: _183  and  _185
REMARK   75  A    between atoms: _185  and  _186
REMARK   76  A    between atoms: _185  and  _188
REMARK   77  A    between atoms: _188  and  _189
REMARK   78  A    between atoms: _195  and  _197
REMARK   79  A    between atoms: _197  and  _198
REMARK   80  A    between atoms: _197  and  _200
REMARK   81  A    between atoms: _200  and  _201
REMARK   82  A    between atoms: _206  and  _207
REMARK   83  A    between atoms: _209  and  _211
REMARK   84  A    between atoms: _211  and  _212
REMARK   85  A    between atoms: _211  and  _214
REMARK   86  A    between atoms: _214  and  _215
REMARK   87  A    between atoms: _220  and  _221
REMARK   88  A    between atoms: _223  and  _225
REMARK   89  A    between atoms: _225  and  _226
REMARK   90  A    between atoms: _225  and  _228
REMARK   91  A    between atoms: _228  and  _229
REMARK   92  A    between atoms: _234  and  _236
REMARK   93  A    between atoms: _236  and  _237
REMARK   94  A    between atoms: _236  and  _239
REMARK   95  A    between atoms: _239  and  _240
REMARK   96  A    between atoms: _246  and  _248
REMARK   97  A    between atoms: _248  and  _249
REMARK   98  A    between atoms: _251  and  _253
REMARK   99  A    between atoms: _253  and  _254
REMARK  100  A    between atoms: _253  and  _256
REMARK  101  A    between atoms: _259  and  _261
REMARK  102  A    between atoms: _261  and  _262
REMARK  103  A    between atoms: _261  and  _264
REMARK  104  A    between atoms: _264  and  _265
REMARK  105  A    between atoms: _268  and  _270
REMARK  106  A    between atoms: _270  and  _271
REMARK  107  A    between atoms: _270  and  _273
REMARK  108  A    between atoms: _273  and  _274
REMARK  109  A    between atoms: _277  and  _279
REMARK  110  A    between atoms: _279  and  _280
REMARK  111  A    between atoms: _279  and  _282
REMARK  112  A    between atoms: _285  and  _287
REMARK  113  A    between atoms: _287  and  _288
REMARK  114  A    between atoms: _287  and  _290
REMARK  115  A    between atoms: _293  and  _295
REMARK  116  A    between atoms: _295  and  _296
REMARK  117  A    between atoms: _295  and  _298
REMARK  118  A    between atoms: _298  and  _299
REMARK  119  A    between atoms: _302  and  _304
REMARK  120  A    between atoms: _304  and  _305
REMARK  121  A    between atoms: _304  and  _307
REMARK  122  A    between atoms: _307  and  _308
REMARK  123  A    between atoms: _311  and  _313
REMARK  124  A    between atoms: _313  and  _314
REMARK  125  A    between atoms: _313  and  _316
REMARK  126  A    between atoms: _316  and  _317
REMARK  127  A    between atoms: _323  and  _325
REMARK  128  A    between atoms: _325  and  _326
REMARK  129  A    between atoms: _325  and  _328
REMARK  130  A    between atoms: _328  and  _329
REMARK  131  A    between atoms: _335  and  _337
REMARK  132  A    between atoms: _337  and  _338
REMARK  133  A    between atoms: _340  and  _342
REMARK  134  A    between atoms: _342  and  _343
REMARK  135  A    between atoms: _342  and  _345
REMARK  136  A    between atoms: _345  and  _346
REMARK  137  A    between atoms: _346  and  _347
REMARK  138  A    between atoms: _350  and  _352
REMARK  139  A    between atoms: _352  and  _353
REMARK  140  A    between atoms: _352  and  _355
REMARK  141  A    between atoms: _355  and  _356
REMARK  142  A    between atoms: _356  and  _357
REMARK  143  A    between atoms: _357  and  _358
REMARK  144  A    between atoms: _358  and  _359
REMARK  145  A    between atoms: _363  and  _365
REMARK  146  A    between atoms: _365  and  _366
REMARK  147  A    between atoms: _365  and  _368
REMARK  148  A    between atoms: _368  and  _369
REMARK  149  A    between atoms: _372  and  _374
REMARK  150  A    between atoms: _374  and  _375
REMARK  151  A    between atoms: _374  and  _377
REMARK  152  A    between atoms: _377  and  _378
REMARK  153  A    between atoms: _383  and  _384
REMARK  154  A    between atoms: _386  and  _388
REMARK  155  A    between atoms: _388  and  _389
REMARK  156  A    between atoms: _388  and  _391
REMARK  157  A    between atoms: _391  and  _392
REMARK  158  A    between atoms: _392  and  _393
REMARK  159  A    between atoms: _398  and  _400
REMARK  160  A    between atoms: _400  and  _401
REMARK  161  A    between atoms: _400  and  _403
REMARK  162  A    between atoms: _403  and  _404
REMARK  163  A    between atoms: _407  and  _409
REMARK  164  A    between atoms: _409  and  _410
REMARK  165  A    between atoms: _409  and  _412
REMARK  166  A    between atoms: _412  and  _413
REMARK  167  A    between atoms: _416  and  _418
REMARK  168  A    between atoms: _418  and  _419
REMARK  169  A    between atoms: _418  and  _421
REMARK  170  A    between atoms: _424  and  _426
REMARK  171  A    between atoms: _426  and  _427
REMARK  172  A    between atoms: _429  and  _431
REMARK  173  A    between atoms: _431  and  _432
REMARK  174  A    between atoms: _431  and  _434
REMARK  175  A    between atoms: _438  and  _439
REMARK  176  A    between atoms: _444  and  _446
REMARK  177  A    between atoms: _446  and  _447
REMARK  178  A    between atoms: _446  and  _449
REMARK  179  A    between atoms: _449  and  _450
REMARK  180  A    between atoms: _453  and  _455
REMARK  181  A    between atoms: _455  and  _456
REMARK  182  A    between atoms: _455  and  _458
REMARK  183  A    between atoms: _461  and  _463
REMARK  184  A    between atoms: _463  and  _464
REMARK  185  A    between atoms: _463  and  _466
REMARK  186  A    between atoms: _466  and  _467
REMARK  187  A    between atoms: _467  and  _468
REMARK  188  A    between atoms: _468  and  _469
REMARK  189  A    between atoms: _478  and  _480
REMARK  190  A    between atoms: _480  and  _481
REMARK  191  A    between atoms: _480  and  _483
REMARK  192  A    between atoms: _483  and  _484
REMARK  193  A    between atoms: _484  and  _485
REMARK  194  A    between atoms: _488  and  _490
REMARK  195  A    between atoms: _490  and  _491
REMARK  196  A    between atoms: _490  and  _493
REMARK  197  A    between atoms: _493  and  _494
REMARK  198  A    between atoms: _497  and  _499
REMARK  199  A    between atoms: _499  and  _500
REMARK  200  A    between atoms: _503  and  _505
REMARK  201  A    between atoms: _505  and  _506
REMARK  202  A    between atoms: _505  and  _508
REMARK  203  A    between atoms: _508  and  _509
REMARK  204  A    between atoms: _509  and  _510
REMARK  205  A    between atoms: _512  and  _514
REMARK  206  A    between atoms: _514  and  _515
REMARK  207  A    between atoms: _514  and  _517
REMARK  208  A    between atoms: _517  and  _518
REMARK  209  A    between atoms: _520  and  _522
REMARK  210  A    between atoms: _522  and  _523
REMARK  211  A    between atoms: _522  and  _525
REMARK  212  A    between atoms: _525  and  _526
REMARK  213  A    between atoms: _528  and  _530
REMARK  214  A    between atoms: _530  and  _531
REMARK  215  A    between atoms: _530  and  _533
REMARK  216  A    between atoms: _533  and  _534
REMARK  217  A    between atoms: _534  and  _535
REMARK  218  A    between atoms: _535  and  _536
REMARK  219  A    between atoms: _545  and  _547
REMARK  220  A    between atoms: _547  and  _548
REMARK  221  A    between atoms: _547  and  _550
REMARK  222  A    between atoms: _550  and  _551
REMARK  223  A    between atoms: _556  and  _558
REMARK  224  A    between atoms: _558  and  _559
REMARK  225  A    between atoms: _558  and  _561
REMARK  226  A    between atoms: _561  and  _562
REMARK                            x       y       z     vdW  Elec       q    Type
REMARK                         _______ _______ _______ _____ _____    ______ ____
ROOT
ATOM      1  O   HOH     1      13.373   4.611   1.859  0.00  0.00    +0.000 OA
ENDROOT
TORSDOF 0
REMARK  Name = ../refined-set-2016/3cow/3cow_pocket.pdb
REMARK  226 active torsions:
REMARK  status: ('A' for Active; 'I' for Inactive)
REMARK    1  A    between atoms: _1  and  _3
REMARK    2  A    between atoms: _3  and  _4
REMARK    3  A    between atoms: _3  and  _6
REMARK    4  A    between atoms: _10  and  _11
REMARK    5  A    between atoms: _16  and  _18
REMARK    6  A    between atoms: _18  and  _19
REMARK    7  A    between atoms: _18  and  _21
REMARK    8  A    between atoms: _21  and  _22
REMARK    9  A    between atoms: _25  and  _27
REMARK   10  A    between atoms: _27  and  _28
REMARK   11  A    between atoms: _27  and  _30
REMARK   12  A    between atoms: _30  and  _31
REMARK   13  A    between atoms: _31  and  _32
REMARK   14  A    between atoms: _34  and  _36
REMARK   15  A    between atoms: _36  and  _37
REMARK   16  A    between atoms: _39  and  _41
REMARK   17  A    between atoms: _41  and  _42
REMARK   18  A    between atoms: _45  and  _47
REMARK   19  A    between atoms: _47  and  _48
REMARK   20  A    between atoms: _47  and  _50
REMARK   21  A    between atoms: _50  and  _51
REMARK   22  A    between atoms: _54  and  _56
REMARK   23  A    between atoms: _56  and  _57
REMARK   24  A    between atoms: _56  and  _59
REMARK   25  A    between atoms: _59  and  _60
REMARK   26  A    between atoms: _65  and  _67
REMARK   27  A    between atoms: _67  and  _68
REMARK   28  A    between atoms: _67  and  _70
REMARK   29  A    between atoms: _70  and  _71
REMARK   30  A    between atoms: _71  and  _72
REMARK   31  A    between atoms: _75  and  _77
REMARK   32  A    between atoms: _77  and  _78
REMARK   33  A    between atoms: _80  and  _82
REMARK   34  A    between atoms: _82  and  _83
REMARK   35  A    between atoms: _82  and  _85
REMARK   36  A    between atoms: _85  and  _86
REMARK   37  A    between atoms: _91  and  _93
REMARK   38  A    between atoms: _93  and  _94
REMARK   39  A    between atoms: _93  and  _96
REMARK   40  A    between atoms: _96  and  _97
REMARK   41  A    between atoms: _100  and  _102
REMARK   42  A    between atoms: _102  and  _103
REMARK   43  A    between atoms: _106  and  _108
REMARK   44  A    between atoms: _108  and  _109
REMARK   45  A    between atoms: _108  and  _111
REMARK   46  A    between atoms: _111  and  _112
REMARK   47  A    between atoms: _115  and  _117
REMARK   48  A    between atoms: _117  and  _118
REMARK   49  A    between atoms: _117  and  _120
REMARK   50  A    between atoms: _123  and  _125
REMARK   51  A    between atoms: _125  and  _126
REMARK   52  A    between atoms: _125  and  _128
REMARK   53  A    between atoms: _128  and  _129
REMARK   54  A    between atoms: _131  and  _133
REMARK   55  A    between atoms: _133  and  _134
REMARK   56  A    between atoms: _133  and  _136
REMARK   57  A    between atoms: _136  and  _137
REMARK   58  A    between atoms: _140  and  _142
REMARK   59  A    between atoms: _142  and  _143
REMARK   60  A    between atoms: _142  and  _145
REMARK   61  A    between atoms: _145  and  _146
REMARK   62  A    between atoms: _152  and  _154
REMARK   63  A    between atoms: _154  and  _155
REMARK   64  A    between atoms: _154  and  _157
REMARK   65  A    between atoms: _160  and  _162
REMARK   66  A    between atoms: _162  and  _163
REMARK   67  A    between atoms: _162  and  _165
REMARK   68  A    between atoms: _165  and  _166
REMARK   69  A    between atoms: _171  and  _173
REMARK   70  A    between atoms: _173  and  _174
REMARK   71  A    between atoms: _173  and  _176
REMARK   72  A    between atoms: _176  and  _177
REMARK   73  A    between atoms: _177  and  _178
REMARK   74  A    between atoms: _183  and  _185
REMARK   75  A    between atoms: _185  and  _186
REMARK   76  A    between atoms: _185  and  _188
REMARK   77  A    between atoms: _188  and  _189
REMARK   78  A    between atoms: _195  and  _197
REMARK   79  A    between atoms: _197  and  _198
REMARK   80  A    between atoms: _197  and  _200
REMARK   81  A    between atoms: _200  and  _201
REMARK   82  A    between atoms: _206  and  _207
REMARK   83  A    between atoms: _209  and  _211
REMARK   84  A    between atoms: _211  and  _212
REMARK   85  A    between atoms: _211  and  _214
REMARK   86  A    between atoms: _214  and  _215
REMARK   87  A    between atoms: _220  and  _221
REMARK   88  A    between atoms: _223  and  _225
REMARK   89  A    between atoms: _225  and  _226
REMARK   90  A    between atoms: _225  and  _228
REMARK   91  A    between atoms: _228  and  _229
REMARK   92  A    between atoms: _234  and  _236
REMARK   93  A    between atoms: _236  and  _237
REMARK   94  A    between atoms: _236  and  _239
REMARK   95  A    between atoms: _239  and  _240
REMARK   96  A    between atoms: _246  and  _248
REMARK   97  A    between atoms: _248  and  _249
REMARK   98  A    between atoms: _251  and  _253
REMARK   99  A    between atoms: _253  and  _254
REMARK  100  A    between atoms: _253  and  _256
REMARK  101  A    between atoms: _259  and  _261
REMARK  102  A    between atoms: _261  and  _262
REMARK  103  A    between atoms: _261  and  _264
REMARK  104  A    between atoms: _264  and  _265
REMARK  105  A    between atoms: _268  and  _270
REMARK  106  A    between atoms: _270  and  _271
REMARK  107  A    between atoms: _270  and  _273
REMARK  108  A    between atoms: _273  and  _274
REMARK  109  A    between atoms: _277  and  _279
REMARK  110  A    between atoms: _279  and  _280
REMARK  111  A    between atoms: _279  and  _282
REMARK  112  A    between atoms: _285  and  _287
REMARK  113  A    between atoms: _287  and  _288
REMARK  114  A    between atoms: _287  and  _290
REMARK  115  A    between atoms: _293  and  _295
REMARK  116  A    between atoms: _295  and  _296
REMARK  117  A    between atoms: _295  and  _298
REMARK  118  A    between atoms: _298  and  _299
REMARK  119  A    between atoms: _302  and  _304
REMARK  120  A    between atoms: _304  and  _305
REMARK  121  A    between atoms: _304  and  _307
REMARK  122  A    between atoms: _307  and  _308
REMARK  123  A    between atoms: _311  and  _313
REMARK  124  A    between atoms: _313  and  _314
REMARK  125  A    between atoms: _313  and  _316
REMARK  126  A    between atoms: _316  and  _317
REMARK  127  A    between atoms: _323  and  _325
REMARK  128  A    between atoms: _325  and  _326
REMARK  129  A    between atoms: _325  and  _328
REMARK  130  A    between atoms: _328  and  _329
REMARK  131  A    between atoms: _335  and  _337
REMARK  132  A    between atoms: _337  and  _338
REMARK  133  A    between atoms: _340  and  _342
REMARK  134  A    between atoms: _342  and  _343
REMARK  135  A    between atoms: _342  and  _345
REMARK  136  A    between atoms: _345  and  _346
REMARK  137  A    between atoms: _346  and  _347
REMARK  138  A    between atoms: _350  and  _352
REMARK  139  A    between atoms: _352  and  _353
REMARK  140  A    between atoms: _352  and  _355
REMARK  141  A    between atoms: _355  and  _356
REMARK  142  A    between atoms: _356  and  _357
REMARK  143  A    between atoms: _357  and  _358
REMARK  144  A    between atoms: _358  and  _359
REMARK  145  A    between atoms: _363  and  _365
REMARK  146  A    between atoms: _365  and  _366
REMARK  147  A    between atoms: _365  and  _368
REMARK  148  A    between atoms: _368  and  _369
REMARK  149  A    between atoms: _372  and  _374
REMARK  150  A    between atoms: _374  and  _375
REMARK  151  A    between atoms: _374  and  _377
REMARK  152  A    between atoms: _377  and  _378
REMARK  153  A    between atoms: _383  and  _384
REMARK  154  A    between atoms: _386  and  _388
REMARK  155  A    between atoms: _388  and  _389
REMARK  156  A    between atoms: _388  and  _391
REMARK  157  A    between atoms: _391  and  _392
REMARK  158  A    between atoms: _392  and  _393
REMARK  159  A    between atoms: _398  and  _400
REMARK  160  A    between atoms: _400  and  _401
REMARK  161  A    between atoms: _400  and  _403
REMARK  162  A    between atoms: _403  and  _404
REMARK  163  A    between atoms: _407  and  _409
REMARK  164  A    between atoms: _409  and  _410
REMARK  165  A    between atoms: _409  and  _412
REMARK  166  A    between atoms: _412  and  _413
REMARK  167  A    between atoms: _416  and  _418
REMARK  168  A    between atoms: _418  and  _419
REMARK  169  A    between atoms: _418  and  _421
REMARK  170  A    between atoms: _424  and  _426
REMARK  171  A    between atoms: _426  and  _427
REMARK  172  A    between atoms: _429  and  _431
REMARK  173  A    between atoms: _431  and  _432
REMARK  174  A    between atoms: _431  and  _434
REMARK  175  A    between atoms: _438  and  _439
REMARK  176  A    between atoms: _444  and  _446
REMARK  177  A    between atoms: _446  and  _447
REMARK  178  A    between atoms: _446  and  _449
REMARK  179  A    between atoms: _449  and  _450
REMARK  180  A    between atoms: _453  and  _455
REMARK  181  A    between atoms: _455  and  _456
REMARK  182  A    between atoms: _455  and  _458
REMARK  183  A    between atoms: _461  and  _463
REMARK  184  A    between atoms: _463  and  _464
REMARK  185  A    between atoms: _463  and  _466
REMARK  186  A    between atoms: _466  and  _467
REMARK  187  A    between atoms: _467  and  _468
REMARK  188  A    between atoms: _468  and  _469
REMARK  189  A    between atoms: _478  and  _480
REMARK  190  A    between atoms: _480  and  _481
REMARK  191  A    between atoms: _480  and  _483
REMARK  192  A    between atoms: _483  and  _484
REMARK  193  A    between atoms: _484  and  _485
REMARK  194  A    between atoms: _488  and  _490
REMARK  195  A    between atoms: _490  and  _491
REMARK  196  A    between atoms: _490  and  _493
REMARK  197  A    between atoms: _493  and  _494
REMARK  198  A    between atoms: _497  and  _499
REMARK  199  A    between atoms: _499  and  _500
REMARK  200  A    between atoms: _503  and  _505
REMARK  201  A    between atoms: _505  and  _506
REMARK  202  A    between atoms: _505  and  _508
REMARK  203  A    between atoms: _508  and  _509
REMARK  204  A    between atoms: _509  and  _510
REMARK  205  A    between atoms: _512  and  _514
REMARK  206  A    between atoms: _514  and  _515
REMARK  207  A    between atoms: _514  and  _517
REMARK  208  A    between atoms: _517  and  _518
REMARK  209  A    between atoms: _520  and  _522
REMARK  210  A    between atoms: _522  and  _523
REMARK  211  A    between atoms: _522  and  _525
REMARK  212  A    between atoms: _525  and  _526
REMARK  213  A    between atoms: _528  and  _530
REMARK  214  A    between atoms: _530  and  _531
REMARK  215  A    between atoms: _530  and  _533
REMARK  216  A    between atoms: _533  and  _534
REMARK  217  A    between atoms: _534  and  _535
REMARK  218  A    between atoms: _535  and  _536
REMARK  219  A    between atoms: _545  and  _547
REMARK  220  A    between atoms: _547  and  _548
REMARK  221  A    between atoms: _547  and  _550
REMARK  222  A    between atoms: _550  and  _551
REMARK  223  A    between atoms: _556  and  _558
REMARK  224  A    between atoms: _558  and  _559
REMARK  225  A    between atoms: _558  and  _561
REMARK  226  A    between atoms: _561  and  _562
REMARK                            x       y       z     vdW  Elec       q    Type
REMARK                         _______ _______ _______ _____ _____    ______ ____
ROOT
ATOM      1  O   HOH     1      10.597   8.876   3.929  0.00  0.00    +0.000 OA
ENDROOT
TORSDOF 0
REMARK  Name = ../refined-set-2016/3cow/3cow_pocket.pdb
REMARK  226 active torsions:
REMARK  status: ('A' for Active; 'I' for Inactive)
REMARK    1  A    between atoms: _1  and  _3
REMARK    2  A    between atoms: _3  and  _4
REMARK    3  A    between atoms: _3  and  _6
REMARK    4  A    between atoms: _10  and  _11
REMARK    5  A    between atoms: _16  and  _18
REMARK    6  A    between atoms: _18  and  _19
REMARK    7  A    between atoms: _18  and  _21
REMARK    8  A    between atoms: _21  and  _22
REMARK    9  A    between atoms: _25  and  _27
REMARK   10  A    between atoms: _27  and  _28
REMARK   11  A    between atoms: _27  and  _30
REMARK   12  A    between atoms: _30  and  _31
REMARK   13  A    between atoms: _31  and  _32
REMARK   14  A    between atoms: _34  and  _36
REMARK   15  A    between atoms: _36  and  _37
REMARK   16  A    between atoms: _39  and  _41
REMARK   17  A    between atoms: _41  and  _42
REMARK   18  A    between atoms: _45  and  _47
REMARK   19  A    between atoms: _47  and  _48
REMARK   20  A    between atoms: _47  and  _50
REMARK   21  A    between atoms: _50  and  _51
REMARK   22  A    between atoms: _54  and  _56
REMARK   23  A    between atoms: _56  and  _57
REMARK   24  A    between atoms: _56  and  _59
REMARK   25  A    between atoms: _59  and  _60
REMARK   26  A    between atoms: _65  and  _67
REMARK   27  A    between atoms: _67  and  _68
REMARK   28  A    between atoms: _67  and  _70
REMARK   29  A    between atoms: _70  and  _71
REMARK   30  A    between atoms: _71  and  _72
REMARK   31  A    between atoms: _75  and  _77
REMARK   32  A    between atoms: _77  and  _78
REMARK   33  A    between atoms: _80  and  _82
REMARK   34  A    between atoms: _82  and  _83
REMARK   35  A    between atoms: _82  and  _85
REMARK   36  A    between atoms: _85  and  _86
REMARK   37  A    between atoms: _91  and  _93
REMARK   38  A    between atoms: _93  and  _94
REMARK   39  A    between atoms: _93  and  _96
REMARK   40  A    between atoms: _96  and  _97
REMARK   41  A    between atoms: _100  and  _102
REMARK   42  A    between atoms: _102  and  _103
REMARK   43  A    between atoms: _106  and  _108
REMARK   44  A    between atoms: _108  and  _109
REMARK   45  A    between atoms: _108  and  _111
REMARK   46  A    between atoms: _111  and  _112
REMARK   47  A    between atoms: _115  and  _117
REMARK   48  A    between atoms: _117  and  _118
REMARK   49  A    between atoms: _117  and  _120
REMARK   50  A    between atoms: _123  and  _125
REMARK   51  A    between atoms: _125  and  _126
REMARK   52  A    between atoms: _125  and  _128
REMARK   53  A    between atoms: _128  and  _129
REMARK   54  A    between atoms: _131  and  _133
REMARK   55  A    between atoms: _133  and  _134
REMARK   56  A    between atoms: _133  and  _136
REMARK   57  A    between atoms: _136  and  _137
REMARK   58  A    between atoms: _140  and  _142
REMARK   59  A    between atoms: _142  and  _143
REMARK   60  A    between atoms: _142  and  _145
REMARK   61  A    between atoms: _145  and  _146
REMARK   62  A    between atoms: _152  and  _154
REMARK   63  A    between atoms: _154  and  _155
REMARK   64  A    between atoms: _154  and  _157
REMARK   65  A    between atoms: _160  and  _162
REMARK   66  A    between atoms: _162  and  _163
REMARK   67  A    between atoms: _162  and  _165
REMARK   68  A    between atoms: _165  and  _166
REMARK   69  A    between atoms: _171  and  _173
REMARK   70  A    between atoms: _173  and  _174
REMARK   71  A    between atoms: _173  and  _176
REMARK   72  A    between atoms: _176  and  _177
REMARK   73  A    between atoms: _177  and  _178
REMARK   74  A    between atoms: _183  and  _185
REMARK   75  A    between atoms: _185  and  _186
REMARK   76  A    between atoms: _185  and  _188
REMARK   77  A    between atoms: _188  and  _189
REMARK   78  A    between atoms: _195  and  _197
REMARK   79  A    between atoms: _197  and  _198
REMARK   80  A    between atoms: _197  and  _200
REMARK   81  A    between atoms: _200  and  _201
REMARK   82  A    between atoms: _206  and  _207
REMARK   83  A    between atoms: _209  and  _211
REMARK   84  A    between atoms: _211  and  _212
REMARK   85  A    between atoms: _211  and  _214
REMARK   86  A    between atoms: _214  and  _215
REMARK   87  A    between atoms: _220  and  _221
REMARK   88  A    between atoms: _223  and  _225
REMARK   89  A    between atoms: _225  and  _226
REMARK   90  A    between atoms: _225  and  _228
REMARK   91  A    between atoms: _228  and  _229
REMARK   92  A    between atoms: _234  and  _236
REMARK   93  A    between atoms: _236  and  _237
REMARK   94  A    between atoms: _236  and  _239
REMARK   95  A    between atoms: _239  and  _240
REMARK   96  A    between atoms: _246  and  _248
REMARK   97  A    between atoms: _248  and  _249
REMARK   98  A    between atoms: _251  and  _253
REMARK   99  A    between atoms: _253  and  _254
REMARK  100  A    between atoms: _253  and  _256
REMARK  101  A    between atoms: _259  and  _261
REMARK  102  A    between atoms: _261  and  _262
REMARK  103  A    between atoms: _261  and  _264
REMARK  104  A    between atoms: _264  and  _265
REMARK  105  A    between atoms: _268  and  _270
REMARK  106  A    between atoms: _270  and  _271
REMARK  107  A    between atoms: _270  and  _273
REMARK  108  A    between atoms: _273  and  _274
REMARK  109  A    between atoms: _277  and  _279
REMARK  110  A    between atoms: _279  and  _280
REMARK  111  A    between atoms: _279  and  _282
REMARK  112  A    between atoms: _285  and  _287
REMARK  113  A    between atoms: _287  and  _288
REMARK  114  A    between atoms: _287  and  _290
REMARK  115  A    between atoms: _293  and  _295
REMARK  116  A    between atoms: _295  and  _296
REMARK  117  A    between atoms: _295  and  _298
REMARK  118  A    between atoms: _298  and  _299
REMARK  119  A    between atoms: _302  and  _304
REMARK  120  A    between atoms: _304  and  _305
REMARK  121  A    between atoms: _304  and  _307
REMARK  122  A    between atoms: _307  and  _308
REMARK  123  A    between atoms: _311  and  _313
REMARK  124  A    between atoms: _313  and  _314
REMARK  125  A    between atoms: _313  and  _316
REMARK  126  A    between atoms: _316  and  _317
REMARK  127  A    between atoms: _323  and  _325
REMARK  128  A    between atoms: _325  and  _326
REMARK  129  A    between atoms: _325  and  _328
REMARK  130  A    between atoms: _328  and  _329
REMARK  131  A    between atoms: _335  and  _337
REMARK  132  A    between atoms: _337  and  _338
REMARK  133  A    between atoms: _340  and  _342
REMARK  134  A    between atoms: _342  and  _343
REMARK  135  A    between atoms: _342  and  _345
REMARK  136  A    between atoms: _345  and  _346
REMARK  137  A    between atoms: _346  and  _347
REMARK  138  A    between atoms: _350  and  _352
REMARK  139  A    between atoms: _352  and  _353
REMARK  140  A    between atoms: _352  and  _355
REMARK  141  A    between atoms: _355  and  _356
REMARK  142  A    between atoms: _356  and  _357
REMARK  143  A    between atoms: _357  and  _358
REMARK  144  A    between atoms: _358  and  _359
REMARK  145  A    between atoms: _363  and  _365
REMARK  146  A    between atoms: _365  and  _366
REMARK  147  A    between atoms: _365  and  _368
REMARK  148  A    between atoms: _368  and  _369
REMARK  149  A    between atoms: _372  and  _374
REMARK  150  A    between atoms: _374  and  _375
REMARK  151  A    between atoms: _374  and  _377
REMARK  152  A    between atoms: _377  and  _378
REMARK  153  A    between atoms: _383  and  _384
REMARK  154  A    between atoms: _386  and  _388
REMARK  155  A    between atoms: _388  and  _389
REMARK  156  A    between atoms: _388  and  _391
REMARK  157  A    between atoms: _391  and  _392
REMARK  158  A    between atoms: _392  and  _393
REMARK  159  A    between atoms: _398  and  _400
REMARK  160  A    between atoms: _400  and  _401
REMARK  161  A    between atoms: _400  and  _403
REMARK  162  A    between atoms: _403  and  _404
REMARK  163  A    between atoms: _407  and  _409
REMARK  164  A    between atoms: _409  and  _410
REMARK  165  A    between atoms: _409  and  _412
REMARK  166  A    between atoms: _412  and  _413
REMARK  167  A    between atoms: _416  and  _418
REMARK  168  A    between atoms: _418  and  _419
REMARK  169  A    between atoms: _418  and  _421
REMARK  170  A    between atoms: _424  and  _426
REMARK  171  A    between atoms: _426  and  _427
REMARK  172  A    between atoms: _429  and  _431
REMARK  173  A    between atoms: _431  and  _432
REMARK  174  A    between atoms: _431  and  _434
REMARK  175  A    between atoms: _438  and  _439
REMARK  176  A    between atoms: _444  and  _446
REMARK  177  A    between atoms: _446  and  _447
REMARK  178  A    between atoms: _446  and  _449
REMARK  179  A    between atoms: _449  and  _450
REMARK  180  A    between atoms: _453  and  _455
REMARK  181  A    between atoms: _455  and  _456
REMARK  182  A    between atoms: _455  and  _458
REMARK  183  A    between atoms: _461  and  _463
REMARK  184  A    between atoms: _463  and  _464
REMARK  185  A    between atoms: _463  and  _466
REMARK  186  A    between atoms: _466  and  _467
REMARK  187  A    between atoms: _467  and  _468
REMARK  188  A    between atoms: _468  and  _469
REMARK  189  A    between atoms: _478  and  _480
REMARK  190  A    between atoms: _480  and  _481
REMARK  191  A    between atoms: _480  and  _483
REMARK  192  A    between atoms: _483  and  _484
REMARK  193  A    between atoms: _484  and  _485
REMARK  194  A    between atoms: _488  and  _490
REMARK  195  A    between atoms: _490  and  _491
REMARK  196  A    between atoms: _490  and  _493
REMARK  197  A    between atoms: _493  and  _494
REMARK  198  A    between atoms: _497  and  _499
REMARK  199  A    between atoms: _499  and  _500
REMARK  200  A    between atoms: _503  and  _505
REMARK  201  A    between atoms: _505  and  _506
REMARK  202  A    between atoms: _505  and  _508
REMARK  203  A    between atoms: _508  and  _509
REMARK  204  A    between atoms: _509  and  _510
REMARK  205  A    between atoms: _512  and  _514
REMARK  206  A    between atoms: _514  and  _515
REMARK  207  A    between atoms: _514  and  _517
REMARK  208  A    between atoms: _517  and  _518
REMARK  209  A    between atoms: _520  and  _522
REMARK  210  A    between atoms: _522  and  _523
REMARK  211  A    between atoms: _522  and  _525
REMARK  212  A    between atoms: _525  and  _526
REMARK  213  A    between atoms: _528  and  _530
REMARK  214  A    between atoms: _530  and  _531
REMARK  215  A    between atoms: _530  and  _533
REMARK  216  A    between atoms: _533  and  _534
REMARK  217  A    between atoms: _534  and  _535
REMARK  218  A    between atoms: _535  and  _536
REMARK  219  A    between atoms: _545  and  _547
REMARK  220  A    between atoms: _547  and  _548
REMARK  221  A    between atoms: _547  and  _550
REMARK  222  A    between atoms: _550  and  _551
REMARK  223  A    between atoms: _556  and  _558
REMARK  224  A    between atoms: _558  and  _559
REMARK  225  A    between atoms: _558  and  _561
REMARK  226  A    between atoms: _561  and  _562
REMARK                            x       y       z     vdW  Elec       q    Type
REMARK                         _______ _______ _______ _____ _____    ______ ____
ROOT
ATOM      1  O   HOH     1      21.356   8.737   7.362  0.00  0.00    +0.000 OA
ENDROOT
TORSDOF 0
REMARK  Name = ../refined-set-2016/3cow/3cow_pocket.pdb
REMARK  226 active torsions:
REMARK  status: ('A' for Active; 'I' for Inactive)
REMARK    1  A    between atoms: _1  and  _3
REMARK    2  A    between atoms: _3  and  _4
REMARK    3  A    between atoms: _3  and  _6
REMARK    4  A    between atoms: _10  and  _11
REMARK    5  A    between atoms: _16  and  _18
REMARK    6  A    between atoms: _18  and  _19
REMARK    7  A    between atoms: _18  and  _21
REMARK    8  A    between atoms: _21  and  _22
REMARK    9  A    between atoms: _25  and  _27
REMARK   10  A    between atoms: _27  and  _28
REMARK   11  A    between atoms: _27  and  _30
REMARK   12  A    between atoms: _30  and  _31
REMARK   13  A    between atoms: _31  and  _32
REMARK   14  A    between atoms: _34  and  _36
REMARK   15  A    between atoms: _36  and  _37
REMARK   16  A    between atoms: _39  and  _41
REMARK   17  A    between atoms: _41  and  _42
REMARK   18  A    between atoms: _45  and  _47
REMARK   19  A    between atoms: _47  and  _48
REMARK   20  A    between atoms: _47  and  _50
REMARK   21  A    between atoms: _50  and  _51
REMARK   22  A    between atoms: _54  and  _56
REMARK   23  A    between atoms: _56  and  _57
REMARK   24  A    between atoms: _56  and  _59
REMARK   25  A    between atoms: _59  and  _60
REMARK   26  A    between atoms: _65  and  _67
REMARK   27  A    between atoms: _67  and  _68
REMARK   28  A    between atoms: _67  and  _70
REMARK   29  A    between atoms: _70  and  _71
REMARK   30  A    between atoms: _71  and  _72
REMARK   31  A    between atoms: _75  and  _77
REMARK   32  A    between atoms: _77  and  _78
REMARK   33  A    between atoms: _80  and  _82
REMARK   34  A    between atoms: _82  and  _83
REMARK   35  A    between atoms: _82  and  _85
REMARK   36  A    between atoms: _85  and  _86
REMARK   37  A    between atoms: _91  and  _93
REMARK   38  A    between atoms: _93  and  _94
REMARK   39  A    between atoms: _93  and  _96
REMARK   40  A    between atoms: _96  and  _97
REMARK   41  A    between atoms: _100  and  _102
REMARK   42  A    between atoms: _102  and  _103
REMARK   43  A    between atoms: _106  and  _108
REMARK   44  A    between atoms: _108  and  _109
REMARK   45  A    between atoms: _108  and  _111
REMARK   46  A    between atoms: _111  and  _112
REMARK   47  A    between atoms: _115  and  _117
REMARK   48  A    between atoms: _117  and  _118
REMARK   49  A    between atoms: _117  and  _120
REMARK   50  A    between atoms: _123  and  _125
REMARK   51  A    between atoms: _125  and  _126
REMARK   52  A    between atoms: _125  and  _128
REMARK   53  A    between atoms: _128  and  _129
REMARK   54  A    between atoms: _131  and  _133
REMARK   55  A    between atoms: _133  and  _134
REMARK   56  A    between atoms: _133  and  _136
REMARK   57  A    between atoms: _136  and  _137
REMARK   58  A    between atoms: _140  and  _142
REMARK   59  A    between atoms: _142  and  _143
REMARK   60  A    between atoms: _142  and  _145
REMARK   61  A    between atoms: _145  and  _146
REMARK   62  A    between atoms: _152  and  _154
REMARK   63  A    between atoms: _154  and  _155
REMARK   64  A    between atoms: _154  and  _157
REMARK   65  A    between atoms: _160  and  _162
REMARK   66  A    between atoms: _162  and  _163
REMARK   67  A    between atoms: _162  and  _165
REMARK   68  A    between atoms: _165  and  _166
REMARK   69  A    between atoms: _171  and  _173
REMARK   70  A    between atoms: _173  and  _174
REMARK   71  A    between atoms: _173  and  _176
REMARK   72  A    between atoms: _176  and  _177
REMARK   73  A    between atoms: _177  and  _178
REMARK   74  A    between atoms: _183  and  _185
REMARK   75  A    between atoms: _185  and  _186
REMARK   76  A    between atoms: _185  and  _188
REMARK   77  A    between atoms: _188  and  _189
REMARK   78  A    between atoms: _195  and  _197
REMARK   79  A    between atoms: _197  and  _198
REMARK   80  A    between atoms: _197  and  _200
REMARK   81  A    between atoms: _200  and  _201
REMARK   82  A    between atoms: _206  and  _207
REMARK   83  A    between atoms: _209  and  _211
REMARK   84  A    between atoms: _211  and  _212
REMARK   85  A    between atoms: _211  and  _214
REMARK   86  A    between atoms: _214  and  _215
REMARK   87  A    between atoms: _220  and  _221
REMARK   88  A    between atoms: _223  and  _225
REMARK   89  A    between atoms: _225  and  _226
REMARK   90  A    between atoms: _225  and  _228
REMARK   91  A    between atoms: _228  and  _229
REMARK   92  A    between atoms: _234  and  _236
REMARK   93  A    between atoms: _236  and  _237
REMARK   94  A    between atoms: _236  and  _239
REMARK   95  A    between atoms: _239  and  _240
REMARK   96  A    between atoms: _246  and  _248
REMARK   97  A    between atoms: _248  and  _249
REMARK   98  A    between atoms: _251  and  _253
REMARK   99  A    between atoms: _253  and  _254
REMARK  100  A    between atoms: _253  and  _256
REMARK  101  A    between atoms: _259  and  _261
REMARK  102  A    between atoms: _261  and  _262
REMARK  103  A    between atoms: _261  and  _264
REMARK  104  A    between atoms: _264  and  _265
REMARK  105  A    between atoms: _268  and  _270
REMARK  106  A    between atoms: _270  and  _271
REMARK  107  A    between atoms: _270  and  _273
REMARK  108  A    between atoms: _273  and  _274
REMARK  109  A    between atoms: _277  and  _279
REMARK  110  A    between atoms: _279  and  _280
REMARK  111  A    between atoms: _279  and  _282
REMARK  112  A    between atoms: _285  and  _287
REMARK  113  A    between atoms: _287  and  _288
REMARK  114  A    between atoms: _287  and  _290
REMARK  115  A    between atoms: _293  and  _295
REMARK  116  A    between atoms: _295  and  _296
REMARK  117  A    between atoms: _295  and  _298
REMARK  118  A    between atoms: _298  and  _299
REMARK  119  A    between atoms: _302  and  _304
REMARK  120  A    between atoms: _304  and  _305
REMARK  121  A    between atoms: _304  and  _307
REMARK  122  A    between atoms: _307  and  _308
REMARK  123  A    between atoms: _311  and  _313
REMARK  124  A    between atoms: _313  and  _314
REMARK  125  A    between atoms: _313  and  _316
REMARK  126  A    between atoms: _316  and  _317
REMARK  127  A    between atoms: _323  and  _325
REMARK  128  A    between atoms: _325  and  _326
REMARK  129  A    between atoms: _325  and  _328
REMARK  130  A    between atoms: _328  and  _329
REMARK  131  A    between atoms: _335  and  _337
REMARK  132  A    between atoms: _337  and  _338
REMARK  133  A    between atoms: _340  and  _342
REMARK  134  A    between atoms: _342  and  _343
REMARK  135  A    between atoms: _342  and  _345
REMARK  136  A    between atoms: _345  and  _346
REMARK  137  A    between atoms: _346  and  _347
REMARK  138  A    between atoms: _350  and  _352
REMARK  139  A    between atoms: _352  and  _353
REMARK  140  A    between atoms: _352  and  _355
REMARK  141  A    between atoms: _355  and  _356
REMARK  142  A    between atoms: _356  and  _357
REMARK  143  A    between atoms: _357  and  _358
REMARK  144  A    between atoms: _358  and  _359
REMARK  145  A    between atoms: _363  and  _365
REMARK  146  A    between atoms: _365  and  _366
REMARK  147  A    between atoms: _365  and  _368
REMARK  148  A    between atoms: _368  and  _369
REMARK  149  A    between atoms: _372  and  _374
REMARK  150  A    between atoms: _374  and  _375
REMARK  151  A    between atoms: _374  and  _377
REMARK  152  A    between atoms: _377  and  _378
REMARK  153  A    between atoms: _383  and  _384
REMARK  154  A    between atoms: _386  and  _388
REMARK  155  A    between atoms: _388  and  _389
REMARK  156  A    between atoms: _388  and  _391
REMARK  157  A    between atoms: _391  and  _392
REMARK  158  A    between atoms: _392  and  _393
REMARK  159  A    between atoms: _398  and  _400
REMARK  160  A    between atoms: _400  and  _401
REMARK  161  A    between atoms: _400  and  _403
REMARK  162  A    between atoms: _403  and  _404
REMARK  163  A    between atoms: _407  and  _409
REMARK  164  A    between atoms: _409  and  _410
REMARK  165  A    between atoms: _409  and  _412
REMARK  166  A    between atoms: _412  and  _413
REMARK  167  A    between atoms: _416  and  _418
REMARK  168  A    between atoms: _418  and  _419
REMARK  169  A    between atoms: _418  and  _421
REMARK  170  A    between atoms: _424  and  _426
REMARK  171  A    between atoms: _426  and  _427
REMARK  172  A    between atoms: _429  and  _431
REMARK  173  A    between atoms: _431  and  _432
REMARK  174  A    between atoms: _431  and  _434
REMARK  175  A    between atoms: _438  and  _439
REMARK  176  A    between atoms: _444  and  _446
REMARK  177  A    between atoms: _446  and  _447
REMARK  178  A    between atoms: _446  and  _449
REMARK  179  A    between atoms: _449  and  _450
REMARK  180  A    between atoms: _453  and  _455
REMARK  181  A    between atoms: _455  and  _456
REMARK  182  A    between atoms: _455  and  _458
REMARK  183  A    between atoms: _461  and  _463
REMARK  184  A    between atoms: _463  and  _464
REMARK  185  A    between atoms: _463  and  _466
REMARK  186  A    between atoms: _466  and  _467
REMARK  187  A    between atoms: _467  and  _468
REMARK  188  A    between atoms: _468  and  _469
REMARK  189  A    between atoms: _478  and  _480
REMARK  190  A    between atoms: _480  and  _481
REMARK  191  A    between atoms: _480  and  _483
REMARK  192  A    between atoms: _483  and  _484
REMARK  193  A    between atoms: _484  and  _485
REMARK  194  A    between atoms: _488  and  _490
REMARK  195  A    between atoms: _490  and  _491
REMARK  196  A    between atoms: _490  and  _493
REMARK  197  A    between atoms: _493  and  _494
REMARK  198  A    between atoms: _497  and  _499
REMARK  199  A    between atoms: _499  and  _500
REMARK  200  A    between atoms: _503  and  _505
REMARK  201  A    between atoms: _505  and  _506
REMARK  202  A    between atoms: _505  and  _508
REMARK  203  A    between atoms: _508  and  _509
REMARK  204  A    between atoms: _509  and  _510
REMARK  205  A    between atoms: _512  and  _514
REMARK  206  A    between atoms: _514  and  _515
REMARK  207  A    between atoms: _514  and  _517
REMARK  208  A    between atoms: _517  and  _518
REMARK  209  A    between atoms: _520  and  _522
REMARK  210  A    between atoms: _522  and  _523
REMARK  211  A    between atoms: _522  and  _525
REMARK  212  A    between atoms: _525  and  _526
REMARK  213  A    between atoms: _528  and  _530
REMARK  214  A    between atoms: _530  and  _531
REMARK  215  A    between atoms: _530  and  _533
REMARK  216  A    between atoms: _533  and  _534
REMARK  217  A    between atoms: _534  and  _535
REMARK  218  A    between atoms: _535  and  _536
REMARK  219  A    between atoms: _545  and  _547
REMARK  220  A    between atoms: _547  and  _548
REMARK  221  A    between atoms: _547  and  _550
REMARK  222  A    between atoms: _550  and  _551
REMARK  223  A    between atoms: _556  and  _558
REMARK  224  A    between atoms: _558  and  _559
REMARK  225  A    between atoms: _558  and  _561
REMARK  226  A    between atoms: _561  and  _562
REMARK                            x       y       z     vdW  Elec       q    Type
REMARK                         _______ _______ _______ _____ _____    ______ ____
ROOT
ATOM      1  O   HOH     1      23.219   9.865  -6.201  0.00  0.00    +0.000 OA
ENDROOT
TORSDOF 0
REMARK  Name = ../refined-set-2016/3cow/3cow_pocket.pdb
REMARK  226 active torsions:
REMARK  status: ('A' for Active; 'I' for Inactive)
REMARK    1  A    between atoms: _1  and  _3
REMARK    2  A    between atoms: _3  and  _4
REMARK    3  A    between atoms: _3  and  _6
REMARK    4  A    between atoms: _10  and  _11
REMARK    5  A    between atoms: _16  and  _18
REMARK    6  A    between atoms: _18  and  _19
REMARK    7  A    between atoms: _18  and  _21
REMARK    8  A    between atoms: _21  and  _22
REMARK    9  A    between atoms: _25  and  _27
REMARK   10  A    between atoms: _27  and  _28
REMARK   11  A    between atoms: _27  and  _30
REMARK   12  A    between atoms: _30  and  _31
REMARK   13  A    between atoms: _31  and  _32
REMARK   14  A    between atoms: _34  and  _36
REMARK   15  A    between atoms: _36  and  _37
REMARK   16  A    between atoms: _39  and  _41
REMARK   17  A    between atoms: _41  and  _42
REMARK   18  A    between atoms: _45  and  _47
REMARK   19  A    between atoms: _47  and  _48
REMARK   20  A    between atoms: _47  and  _50
REMARK   21  A    between atoms: _50  and  _51
REMARK   22  A    between atoms: _54  and  _56
REMARK   23  A    between atoms: _56  and  _57
REMARK   24  A    between atoms: _56  and  _59
REMARK   25  A    between atoms: _59  and  _60
REMARK   26  A    between atoms: _65  and  _67
REMARK   27  A    between atoms: _67  and  _68
REMARK   28  A    between atoms: _67  and  _70
REMARK   29  A    between atoms: _70  and  _71
REMARK   30  A    between atoms: _71  and  _72
REMARK   31  A    between atoms: _75  and  _77
REMARK   32  A    between atoms: _77  and  _78
REMARK   33  A    between atoms: _80  and  _82
REMARK   34  A    between atoms: _82  and  _83
REMARK   35  A    between atoms: _82  and  _85
REMARK   36  A    between atoms: _85  and  _86
REMARK   37  A    between atoms: _91  and  _93
REMARK   38  A    between atoms: _93  and  _94
REMARK   39  A    between atoms: _93  and  _96
REMARK   40  A    between atoms: _96  and  _97
REMARK   41  A    between atoms: _100  and  _102
REMARK   42  A    between atoms: _102  and  _103
REMARK   43  A    between atoms: _106  and  _108
REMARK   44  A    between atoms: _108  and  _109
REMARK   45  A    between atoms: _108  and  _111
REMARK   46  A    between atoms: _111  and  _112
REMARK   47  A    between atoms: _115  and  _117
REMARK   48  A    between atoms: _117  and  _118
REMARK   49  A    between atoms: _117  and  _120
REMARK   50  A    between atoms: _123  and  _125
REMARK   51  A    between atoms: _125  and  _126
REMARK   52  A    between atoms: _125  and  _128
REMARK   53  A    between atoms: _128  and  _129
REMARK   54  A    between atoms: _131  and  _133
REMARK   55  A    between atoms: _133  and  _134
REMARK   56  A    between atoms: _133  and  _136
REMARK   57  A    between atoms: _136  and  _137
REMARK   58  A    between atoms: _140  and  _142
REMARK   59  A    between atoms: _142  and  _143
REMARK   60  A    between atoms: _142  and  _145
REMARK   61  A    between atoms: _145  and  _146
REMARK   62  A    between atoms: _152  and  _154
REMARK   63  A    between atoms: _154  and  _155
REMARK   64  A    between atoms: _154  and  _157
REMARK   65  A    between atoms: _160  and  _162
REMARK   66  A    between atoms: _162  and  _163
REMARK   67  A    between atoms: _162  and  _165
REMARK   68  A    between atoms: _165  and  _166
REMARK   69  A    between atoms: _171  and  _173
REMARK   70  A    between atoms: _173  and  _174
REMARK   71  A    between atoms: _173  and  _176
REMARK   72  A    between atoms: _176  and  _177
REMARK   73  A    between atoms: _177  and  _178
REMARK   74  A    between atoms: _183  and  _185
REMARK   75  A    between atoms: _185  and  _186
REMARK   76  A    between atoms: _185  and  _188
REMARK   77  A    between atoms: _188  and  _189
REMARK   78  A    between atoms: _195  and  _197
REMARK   79  A    between atoms: _197  and  _198
REMARK   80  A    between atoms: _197  and  _200
REMARK   81  A    between atoms: _200  and  _201
REMARK   82  A    between atoms: _206  and  _207
REMARK   83  A    between atoms: _209  and  _211
REMARK   84  A    between atoms: _211  and  _212
REMARK   85  A    between atoms: _211  and  _214
REMARK   86  A    between atoms: _214  and  _215
REMARK   87  A    between atoms: _220  and  _221
REMARK   88  A    between atoms: _223  and  _225
REMARK   89  A    between atoms: _225  and  _226
REMARK   90  A    between atoms: _225  and  _228
REMARK   91  A    between atoms: _228  and  _229
REMARK   92  A    between atoms: _234  and  _236
REMARK   93  A    between atoms: _236  and  _237
REMARK   94  A    between atoms: _236  and  _239
REMARK   95  A    between atoms: _239  and  _240
REMARK   96  A    between atoms: _246  and  _248
REMARK   97  A    between atoms: _248  and  _249
REMARK   98  A    between atoms: _251  and  _253
REMARK   99  A    between atoms: _253  and  _254
REMARK  100  A    between atoms: _253  and  _256
REMARK  101  A    between atoms: _259  and  _261
REMARK  102  A    between atoms: _261  and  _262
REMARK  103  A    between atoms: _261  and  _264
REMARK  104  A    between atoms: _264  and  _265
REMARK  105  A    between atoms: _268  and  _270
REMARK  106  A    between atoms: _270  and  _271
REMARK  107  A    between atoms: _270  and  _273
REMARK  108  A    between atoms: _273  and  _274
REMARK  109  A    between atoms: _277  and  _279
REMARK  110  A    between atoms: _279  and  _280
REMARK  111  A    between atoms: _279  and  _282
REMARK  112  A    between atoms: _285  and  _287
REMARK  113  A    between atoms: _287  and  _288
REMARK  114  A    between atoms: _287  and  _290
REMARK  115  A    between atoms: _293  and  _295
REMARK  116  A    between atoms: _295  and  _296
REMARK  117  A    between atoms: _295  and  _298
REMARK  118  A    between atoms: _298  and  _299
REMARK  119  A    between atoms: _302  and  _304
REMARK  120  A    between atoms: _304  and  _305
REMARK  121  A    between atoms: _304  and  _307
REMARK  122  A    between atoms: _307  and  _308
REMARK  123  A    between atoms: _311  and  _313
REMARK  124  A    between atoms: _313  and  _314
REMARK  125  A    between atoms: _313  and  _316
REMARK  126  A    between atoms: _316  and  _317
REMARK  127  A    between atoms: _323  and  _325
REMARK  128  A    between atoms: _325  and  _326
REMARK  129  A    between atoms: _325  and  _328
REMARK  130  A    between atoms: _328  and  _329
REMARK  131  A    between atoms: _335  and  _337
REMARK  132  A    between atoms: _337  and  _338
REMARK  133  A    between atoms: _340  and  _342
REMARK  134  A    between atoms: _342  and  _343
REMARK  135  A    between atoms: _342  and  _345
REMARK  136  A    between atoms: _345  and  _346
REMARK  137  A    between atoms: _346  and  _347
REMARK  138  A    between atoms: _350  and  _352
REMARK  139  A    between atoms: _352  and  _353
REMARK  140  A    between atoms: _352  and  _355
REMARK  141  A    between atoms: _355  and  _356
REMARK  142  A    between atoms: _356  and  _357
REMARK  143  A    between atoms: _357  and  _358
REMARK  144  A    between atoms: _358  and  _359
REMARK  145  A    between atoms: _363  and  _365
REMARK  146  A    between atoms: _365  and  _366
REMARK  147  A    between atoms: _365  and  _368
REMARK  148  A    between atoms: _368  and  _369
REMARK  149  A    between atoms: _372  and  _374
REMARK  150  A    between atoms: _374  and  _375
REMARK  151  A    between atoms: _374  and  _377
REMARK  152  A    between atoms: _377  and  _378
REMARK  153  A    between atoms: _383  and  _384
REMARK  154  A    between atoms: _386  and  _388
REMARK  155  A    between atoms: _388  and  _389
REMARK  156  A    between atoms: _388  and  _391
REMARK  157  A    between atoms: _391  and  _392
REMARK  158  A    between atoms: _392  and  _393
REMARK  159  A    between atoms: _398  and  _400
REMARK  160  A    between atoms: _400  and  _401
REMARK  161  A    between atoms: _400  and  _403
REMARK  162  A    between atoms: _403  and  _404
REMARK  163  A    between atoms: _407  and  _409
REMARK  164  A    between atoms: _409  and  _410
REMARK  165  A    between atoms: _409  and  _412
REMARK  166  A    between atoms: _412  and  _413
REMARK  167  A    between atoms: _416  and  _418
REMARK  168  A    between atoms: _418  and  _419
REMARK  169  A    between atoms: _418  and  _421
REMARK  170  A    between atoms: _424  and  _426
REMARK  171  A    between atoms: _426  and  _427
REMARK  172  A    between atoms: _429  and  _431
REMARK  173  A    between atoms: _431  and  _432
REMARK  174  A    between atoms: _431  and  _434
REMARK  175  A    between atoms: _438  and  _439
REMARK  176  A    between atoms: _444  and  _446
REMARK  177  A    between atoms: _446  and  _447
REMARK  178  A    between atoms: _446  and  _449
REMARK  179  A    between atoms: _449  and  _450
REMARK  180  A    between atoms: _453  and  _455
REMARK  181  A    between atoms: _455  and  _456
REMARK  182  A    between atoms: _455  and  _458
REMARK  183  A    between atoms: _461  and  _463
REMARK  184  A    between atoms: _463  and  _464
REMARK  185  A    between atoms: _463  and  _466
REMARK  186  A    between atoms: _466  and  _467
REMARK  187  A    between atoms: _467  and  _468
REMARK  188  A    between atoms: _468  and  _469
REMARK  189  A    between atoms: _478  and  _480
REMARK  190  A    between atoms: _480  and  _481
REMARK  191  A    between atoms: _480  and  _483
REMARK  192  A    between atoms: _483  and  _484
REMARK  193  A    between atoms: _484  and  _485
REMARK  194  A    between atoms: _488  and  _490
REMARK  195  A    between atoms: _490  and  _491
REMARK  196  A    between atoms: _490  and  _493
REMARK  197  A    between atoms: _493  and  _494
REMARK  198  A    between atoms: _497  and  _499
REMARK  199  A    between atoms: _499  and  _500
REMARK  200  A    between atoms: _503  and  _505
REMARK  201  A    between atoms: _505  and  _506
REMARK  202  A    between atoms: _505  and  _508
REMARK  203  A    between atoms: _508  and  _509
REMARK  204  A    between atoms: _509  and  _510
REMARK  205  A    between atoms: _512  and  _514
REMARK  206  A    between atoms: _514  and  _515
REMARK  207  A    between atoms: _514  and  _517
REMARK  208  A    between atoms: _517  and  _518
REMARK  209  A    between atoms: _520  and  _522
REMARK  210  A    between atoms: _522  and  _523
REMARK  211  A    between atoms: _522  and  _525
REMARK  212  A    between atoms: _525  and  _526
REMARK  213  A    between atoms: _528  and  _530
REMARK  214  A    between atoms: _530  and  _531
REMARK  215  A    between atoms: _530  and  _533
REMARK  216  A    between atoms: _533  and  _534
REMARK  217  A    between atoms: _534  and  _535
REMARK  218  A    between atoms: _535  and  _536
REMARK  219  A    between atoms: _545  and  _547
REMARK  220  A    between atoms: _547  and  _548
REMARK  221  A    between atoms: _547  and  _550
REMARK  222  A    between atoms: _550  and  _551
REMARK  223  A    between atoms: _556  and  _558
REMARK  224  A    between atoms: _558  and  _559
REMARK  225  A    between atoms: _558  and  _561
REMARK  226  A    between atoms: _561  and  _562
REMARK                            x       y       z     vdW  Elec       q    Type
REMARK                         _______ _______ _______ _____ _____    ______ ____
ROOT
ATOM      1  O   HOH     1      23.215   8.297  -3.688  0.00  0.00    +0.000 OA
ENDROOT
TORSDOF 0
REMARK  Name = ../refined-set-2016/3cow/3cow_pocket.pdb
REMARK  226 active torsions:
REMARK  status: ('A' for Active; 'I' for Inactive)
REMARK    1  A    between atoms: _1  and  _3
REMARK    2  A    between atoms: _3  and  _4
REMARK    3  A    between atoms: _3  and  _6
REMARK    4  A    between atoms: _10  and  _11
REMARK    5  A    between atoms: _16  and  _18
REMARK    6  A    between atoms: _18  and  _19
REMARK    7  A    between atoms: _18  and  _21
REMARK    8  A    between atoms: _21  and  _22
REMARK    9  A    between atoms: _25  and  _27
REMARK   10  A    between atoms: _27  and  _28
REMARK   11  A    between atoms: _27  and  _30
REMARK   12  A    between atoms: _30  and  _31
REMARK   13  A    between atoms: _31  and  _32
REMARK   14  A    between atoms: _34  and  _36
REMARK   15  A    between atoms: _36  and  _37
REMARK   16  A    between atoms: _39  and  _41
REMARK   17  A    between atoms: _41  and  _42
REMARK   18  A    between atoms: _45  and  _47
REMARK   19  A    between atoms: _47  and  _48
REMARK   20  A    between atoms: _47  and  _50
REMARK   21  A    between atoms: _50  and  _51
REMARK   22  A    between atoms: _54  and  _56
REMARK   23  A    between atoms: _56  and  _57
REMARK   24  A    between atoms: _56  and  _59
REMARK   25  A    between atoms: _59  and  _60
REMARK   26  A    between atoms: _65  and  _67
REMARK   27  A    between atoms: _67  and  _68
REMARK   28  A    between atoms: _67  and  _70
REMARK   29  A    between atoms: _70  and  _71
REMARK   30  A    between atoms: _71  and  _72
REMARK   31  A    between atoms: _75  and  _77
REMARK   32  A    between atoms: _77  and  _78
REMARK   33  A    between atoms: _80  and  _82
REMARK   34  A    between atoms: _82  and  _83
REMARK   35  A    between atoms: _82  and  _85
REMARK   36  A    between atoms: _85  and  _86
REMARK   37  A    between atoms: _91  and  _93
REMARK   38  A    between atoms: _93  and  _94
REMARK   39  A    between atoms: _93  and  _96
REMARK   40  A    between atoms: _96  and  _97
REMARK   41  A    between atoms: _100  and  _102
REMARK   42  A    between atoms: _102  and  _103
REMARK   43  A    between atoms: _106  and  _108
REMARK   44  A    between atoms: _108  and  _109
REMARK   45  A    between atoms: _108  and  _111
REMARK   46  A    between atoms: _111  and  _112
REMARK   47  A    between atoms: _115  and  _117
REMARK   48  A    between atoms: _117  and  _118
REMARK   49  A    between atoms: _117  and  _120
REMARK   50  A    between atoms: _123  and  _125
REMARK   51  A    between atoms: _125  and  _126
REMARK   52  A    between atoms: _125  and  _128
REMARK   53  A    between atoms: _128  and  _129
REMARK   54  A    between atoms: _131  and  _133
REMARK   55  A    between atoms: _133  and  _134
REMARK   56  A    between atoms: _133  and  _136
REMARK   57  A    between atoms: _136  and  _137
REMARK   58  A    between atoms: _140  and  _142
REMARK   59  A    between atoms: _142  and  _143
REMARK   60  A    between atoms: _142  and  _145
REMARK   61  A    between atoms: _145  and  _146
REMARK   62  A    between atoms: _152  and  _154
REMARK   63  A    between atoms: _154  and  _155
REMARK   64  A    between atoms: _154  and  _157
REMARK   65  A    between atoms: _160  and  _162
REMARK   66  A    between atoms: _162  and  _163
REMARK   67  A    between atoms: _162  and  _165
REMARK   68  A    between atoms: _165  and  _166
REMARK   69  A    between atoms: _171  and  _173
REMARK   70  A    between atoms: _173  and  _174
REMARK   71  A    between atoms: _173  and  _176
REMARK   72  A    between atoms: _176  and  _177
REMARK   73  A    between atoms: _177  and  _178
REMARK   74  A    between atoms: _183  and  _185
REMARK   75  A    between atoms: _185  and  _186
REMARK   76  A    between atoms: _185  and  _188
REMARK   77  A    between atoms: _188  and  _189
REMARK   78  A    between atoms: _195  and  _197
REMARK   79  A    between atoms: _197  and  _198
REMARK   80  A    between atoms: _197  and  _200
REMARK   81  A    between atoms: _200  and  _201
REMARK   82  A    between atoms: _206  and  _207
REMARK   83  A    between atoms: _209  and  _211
REMARK   84  A    between atoms: _211  and  _212
REMARK   85  A    between atoms: _211  and  _214
REMARK   86  A    between atoms: _214  and  _215
REMARK   87  A    between atoms: _220  and  _221
REMARK   88  A    between atoms: _223  and  _225
REMARK   89  A    between atoms: _225  and  _226
REMARK   90  A    between atoms: _225  and  _228
REMARK   91  A    between atoms: _228  and  _229
REMARK   92  A    between atoms: _234  and  _236
REMARK   93  A    between atoms: _236  and  _237
REMARK   94  A    between atoms: _236  and  _239
REMARK   95  A    between atoms: _239  and  _240
REMARK   96  A    between atoms: _246  and  _248
REMARK   97  A    between atoms: _248  and  _249
REMARK   98  A    between atoms: _251  and  _253
REMARK   99  A    between atoms: _253  and  _254
REMARK  100  A    between atoms: _253  and  _256
REMARK  101  A    between atoms: _259  and  _261
REMARK  102  A    between atoms: _261  and  _262
REMARK  103  A    between atoms: _261  and  _264
REMARK  104  A    between atoms: _264  and  _265
REMARK  105  A    between atoms: _268  and  _270
REMARK  106  A    between atoms: _270  and  _271
REMARK  107  A    between atoms: _270  and  _273
REMARK  108  A    between atoms: _273  and  _274
REMARK  109  A    between atoms: _277  and  _279
REMARK  110  A    between atoms: _279  and  _280
REMARK  111  A    between atoms: _279  and  _282
REMARK  112  A    between atoms: _285  and  _287
REMARK  113  A    between atoms: _287  and  _288
REMARK  114  A    between atoms: _287  and  _290
REMARK  115  A    between atoms: _293  and  _295
REMARK  116  A    between atoms: _295  and  _296
REMARK  117  A    between atoms: _295  and  _298
REMARK  118  A    between atoms: _298  and  _299
REMARK  119  A    between atoms: _302  and  _304
REMARK  120  A    between atoms: _304  and  _305
REMARK  121  A    between atoms: _304  and  _307
REMARK  122  A    between atoms: _307  and  _308
REMARK  123  A    between atoms: _311  and  _313
REMARK  124  A    between atoms: _313  and  _314
REMARK  125  A    between atoms: _313  and  _316
REMARK  126  A    between atoms: _316  and  _317
REMARK  127  A    between atoms: _323  and  _325
REMARK  128  A    between atoms: _325  and  _326
REMARK  129  A    between atoms: _325  and  _328
REMARK  130  A    between atoms: _328  and  _329
REMARK  131  A    between atoms: _335  and  _337
REMARK  132  A    between atoms: _337  and  _338
REMARK  133  A    between atoms: _340  and  _342
REMARK  134  A    between atoms: _342  and  _343
REMARK  135  A    between atoms: _342  and  _345
REMARK  136  A    between atoms: _345  and  _346
REMARK  137  A    between atoms: _346  and  _347
REMARK  138  A    between atoms: _350  and  _352
REMARK  139  A    between atoms: _352  and  _353
REMARK  140  A    between atoms: _352  and  _355
REMARK  141  A    between atoms: _355  and  _356
REMARK  142  A    between atoms: _356  and  _357
REMARK  143  A    between atoms: _357  and  _358
REMARK  144  A    between atoms: _358  and  _359
REMARK  145  A    between atoms: _363  and  _365
REMARK  146  A    between atoms: _365  and  _366
REMARK  147  A    between atoms: _365  and  _368
REMARK  148  A    between atoms: _368  and  _369
REMARK  149  A    between atoms: _372  and  _374
REMARK  150  A    between atoms: _374  and  _375
REMARK  151  A    between atoms: _374  and  _377
REMARK  152  A    between atoms: _377  and  _378
REMARK  153  A    between atoms: _383  and  _384
REMARK  154  A    between atoms: _386  and  _388
REMARK  155  A    between atoms: _388  and  _389
REMARK  156  A    between atoms: _388  and  _391
REMARK  157  A    between atoms: _391  and  _392
REMARK  158  A    between atoms: _392  and  _393
REMARK  159  A    between atoms: _398  and  _400
REMARK  160  A    between atoms: _400  and  _401
REMARK  161  A    between atoms: _400  and  _403
REMARK  162  A    between atoms: _403  and  _404
REMARK  163  A    between atoms: _407  and  _409
REMARK  164  A    between atoms: _409  and  _410
REMARK  165  A    between atoms: _409  and  _412
REMARK  166  A    between atoms: _412  and  _413
REMARK  167  A    between atoms: _416  and  _418
REMARK  168  A    between atoms: _418  and  _419
REMARK  169  A    between atoms: _418  and  _421
REMARK  170  A    between atoms: _424  and  _426
REMARK  171  A    between atoms: _426  and  _427
REMARK  172  A    between atoms: _429  and  _431
REMARK  173  A    between atoms: _431  and  _432
REMARK  174  A    between atoms: _431  and  _434
REMARK  175  A    between atoms: _438  and  _439
REMARK  176  A    between atoms: _444  and  _446
REMARK  177  A    between atoms: _446  and  _447
REMARK  178  A    between atoms: _446  and  _449
REMARK  179  A    between atoms: _449  and  _450
REMARK  180  A    between atoms: _453  and  _455
REMARK  181  A    between atoms: _455  and  _456
REMARK  182  A    between atoms: _455  and  _458
REMARK  183  A    between atoms: _461  and  _463
REMARK  184  A    between atoms: _463  and  _464
REMARK  185  A    between atoms: _463  and  _466
REMARK  186  A    between atoms: _466  and  _467
REMARK  187  A    between atoms: _467  and  _468
REMARK  188  A    between atoms: _468  and  _469
REMARK  189  A    between atoms: _478  and  _480
REMARK  190  A    between atoms: _480  and  _481
REMARK  191  A    between atoms: _480  and  _483
REMARK  192  A    between atoms: _483  and  _484
REMARK  193  A    between atoms: _484  and  _485
REMARK  194  A    between atoms: _488  and  _490
REMARK  195  A    between atoms: _490  and  _491
REMARK  196  A    between atoms: _490  and  _493
REMARK  197  A    between atoms: _493  and  _494
REMARK  198  A    between atoms: _497  and  _499
REMARK  199  A    between atoms: _499  and  _500
REMARK  200  A    between atoms: _503  and  _505
REMARK  201  A    between atoms: _505  and  _506
REMARK  202  A    between atoms: _505  and  _508
REMARK  203  A    between atoms: _508  and  _509
REMARK  204  A    between atoms: _509  and  _510
REMARK  205  A    between atoms: _512  and  _514
REMARK  206  A    between atoms: _514  and  _515
REMARK  207  A    between atoms: _514  and  _517
REMARK  208  A    between atoms: _517  and  _518
REMARK  209  A    between atoms: _520  and  _522
REMARK  210  A    between atoms: _522  and  _523
REMARK  211  A    between atoms: _522  and  _525
REMARK  212  A    between atoms: _525  and  _526
REMARK  213  A    between atoms: _528  and  _530
REMARK  214  A    between atoms: _530  and  _531
REMARK  215  A    between atoms: _530  and  _533
REMARK  216  A    between atoms: _533  and  _534
REMARK  217  A    between atoms: _534  and  _535
REMARK  218  A    between atoms: _535  and  _536
REMARK  219  A    between atoms: _545  and  _547
REMARK  220  A    between atoms: _547  and  _548
REMARK  221  A    between atoms: _547  and  _550
REMARK  222  A    between atoms: _550  and  _551
REMARK  223  A    between atoms: _556  and  _558
REMARK  224  A    between atoms: _558  and  _559
REMARK  225  A    between atoms: _558  and  _561
REMARK  226  A    between atoms: _561  and  _562
REMARK                            x       y       z     vdW  Elec       q    Type
REMARK                         _______ _______ _______ _____ _____    ______ ____
ROOT
ATOM      1  O   HOH     1      18.691  19.174   6.649  0.00  0.00    +0.000 OA
ENDROOT
TORSDOF 0
REMARK  Name = ../refined-set-2016/3cow/3cow_pocket.pdb
REMARK  226 active torsions:
REMARK  status: ('A' for Active; 'I' for Inactive)
REMARK    1  A    between atoms: _1  and  _3
REMARK    2  A    between atoms: _3  and  _4
REMARK    3  A    between atoms: _3  and  _6
REMARK    4  A    between atoms: _10  and  _11
REMARK    5  A    between atoms: _16  and  _18
REMARK    6  A    between atoms: _18  and  _19
REMARK    7  A    between atoms: _18  and  _21
REMARK    8  A    between atoms: _21  and  _22
REMARK    9  A    between atoms: _25  and  _27
REMARK   10  A    between atoms: _27  and  _28
REMARK   11  A    between atoms: _27  and  _30
REMARK   12  A    between atoms: _30  and  _31
REMARK   13  A    between atoms: _31  and  _32
REMARK   14  A    between atoms: _34  and  _36
REMARK   15  A    between atoms: _36  and  _37
REMARK   16  A    between atoms: _39  and  _41
REMARK   17  A    between atoms: _41  and  _42
REMARK   18  A    between atoms: _45  and  _47
REMARK   19  A    between atoms: _47  and  _48
REMARK   20  A    between atoms: _47  and  _50
REMARK   21  A    between atoms: _50  and  _51
REMARK   22  A    between atoms: _54  and  _56
REMARK   23  A    between atoms: _56  and  _57
REMARK   24  A    between atoms: _56  and  _59
REMARK   25  A    between atoms: _59  and  _60
REMARK   26  A    between atoms: _65  and  _67
REMARK   27  A    between atoms: _67  and  _68
REMARK   28  A    between atoms: _67  and  _70
REMARK   29  A    between atoms: _70  and  _71
REMARK   30  A    between atoms: _71  and  _72
REMARK   31  A    between atoms: _75  and  _77
REMARK   32  A    between atoms: _77  and  _78
REMARK   33  A    between atoms: _80  and  _82
REMARK   34  A    between atoms: _82  and  _83
REMARK   35  A    between atoms: _82  and  _85
REMARK   36  A    between atoms: _85  and  _86
REMARK   37  A    between atoms: _91  and  _93
REMARK   38  A    between atoms: _93  and  _94
REMARK   39  A    between atoms: _93  and  _96
REMARK   40  A    between atoms: _96  and  _97
REMARK   41  A    between atoms: _100  and  _102
REMARK   42  A    between atoms: _102  and  _103
REMARK   43  A    between atoms: _106  and  _108
REMARK   44  A    between atoms: _108  and  _109
REMARK   45  A    between atoms: _108  and  _111
REMARK   46  A    between atoms: _111  and  _112
REMARK   47  A    between atoms: _115  and  _117
REMARK   48  A    between atoms: _117  and  _118
REMARK   49  A    between atoms: _117  and  _120
REMARK   50  A    between atoms: _123  and  _125
REMARK   51  A    between atoms: _125  and  _126
REMARK   52  A    between atoms: _125  and  _128
REMARK   53  A    between atoms: _128  and  _129
REMARK   54  A    between atoms: _131  and  _133
REMARK   55  A    between atoms: _133  and  _134
REMARK   56  A    between atoms: _133  and  _136
REMARK   57  A    between atoms: _136  and  _137
REMARK   58  A    between atoms: _140  and  _142
REMARK   59  A    between atoms: _142  and  _143
REMARK   60  A    between atoms: _142  and  _145
REMARK   61  A    between atoms: _145  and  _146
REMARK   62  A    between atoms: _152  and  _154
REMARK   63  A    between atoms: _154  and  _155
REMARK   64  A    between atoms: _154  and  _157
REMARK   65  A    between atoms: _160  and  _162
REMARK   66  A    between atoms: _162  and  _163
REMARK   67  A    between atoms: _162  and  _165
REMARK   68  A    between atoms: _165  and  _166
REMARK   69  A    between atoms: _171  and  _173
REMARK   70  A    between atoms: _173  and  _174
REMARK   71  A    between atoms: _173  and  _176
REMARK   72  A    between atoms: _176  and  _177
REMARK   73  A    between atoms: _177  and  _178
REMARK   74  A    between atoms: _183  and  _185
REMARK   75  A    between atoms: _185  and  _186
REMARK   76  A    between atoms: _185  and  _188
REMARK   77  A    between atoms: _188  and  _189
REMARK   78  A    between atoms: _195  and  _197
REMARK   79  A    between atoms: _197  and  _198
REMARK   80  A    between atoms: _197  and  _200
REMARK   81  A    between atoms: _200  and  _201
REMARK   82  A    between atoms: _206  and  _207
REMARK   83  A    between atoms: _209  and  _211
REMARK   84  A    between atoms: _211  and  _212
REMARK   85  A    between atoms: _211  and  _214
REMARK   86  A    between atoms: _214  and  _215
REMARK   87  A    between atoms: _220  and  _221
REMARK   88  A    between atoms: _223  and  _225
REMARK   89  A    between atoms: _225  and  _226
REMARK   90  A    between atoms: _225  and  _228
REMARK   91  A    between atoms: _228  and  _229
REMARK   92  A    between atoms: _234  and  _236
REMARK   93  A    between atoms: _236  and  _237
REMARK   94  A    between atoms: _236  and  _239
REMARK   95  A    between atoms: _239  and  _240
REMARK   96  A    between atoms: _246  and  _248
REMARK   97  A    between atoms: _248  and  _249
REMARK   98  A    between atoms: _251  and  _253
REMARK   99  A    between atoms: _253  and  _254
REMARK  100  A    between atoms: _253  and  _256
REMARK  101  A    between atoms: _259  and  _261
REMARK  102  A    between atoms: _261  and  _262
REMARK  103  A    between atoms: _261  and  _264
REMARK  104  A    between atoms: _264  and  _265
REMARK  105  A    between atoms: _268  and  _270
REMARK  106  A    between atoms: _270  and  _271
REMARK  107  A    between atoms: _270  and  _273
REMARK  108  A    between atoms: _273  and  _274
REMARK  109  A    between atoms: _277  and  _279
REMARK  110  A    between atoms: _279  and  _280
REMARK  111  A    between atoms: _279  and  _282
REMARK  112  A    between atoms: _285  and  _287
REMARK  113  A    between atoms: _287  and  _288
REMARK  114  A    between atoms: _287  and  _290
REMARK  115  A    between atoms: _293  and  _295
REMARK  116  A    between atoms: _295  and  _296
REMARK  117  A    between atoms: _295  and  _298
REMARK  118  A    between atoms: _298  and  _299
REMARK  119  A    between atoms: _302  and  _304
REMARK  120  A    between atoms: _304  and  _305
REMARK  121  A    between atoms: _304  and  _307
REMARK  122  A    between atoms: _307  and  _308
REMARK  123  A    between atoms: _311  and  _313
REMARK  124  A    between atoms: _313  and  _314
REMARK  125  A    between atoms: _313  and  _316
REMARK  126  A    between atoms: _316  and  _317
REMARK  127  A    between atoms: _323  and  _325
REMARK  128  A    between atoms: _325  and  _326
REMARK  129  A    between atoms: _325  and  _328
REMARK  130  A    between atoms: _328  and  _329
REMARK  131  A    between atoms: _335  and  _337
REMARK  132  A    between atoms: _337  and  _338
REMARK  133  A    between atoms: _340  and  _342
REMARK  134  A    between atoms: _342  and  _343
REMARK  135  A    between atoms: _342  and  _345
REMARK  136  A    between atoms: _345  and  _346
REMARK  137  A    between atoms: _346  and  _347
REMARK  138  A    between atoms: _350  and  _352
REMARK  139  A    between atoms: _352  and  _353
REMARK  140  A    between atoms: _352  and  _355
REMARK  141  A    between atoms: _355  and  _356
REMARK  142  A    between atoms: _356  and  _357
REMARK  143  A    between atoms: _357  and  _358
REMARK  144  A    between atoms: _358  and  _359
REMARK  145  A    between atoms: _363  and  _365
REMARK  146  A    between atoms: _365  and  _366
REMARK  147  A    between atoms: _365  and  _368
REMARK  148  A    between atoms: _368  and  _369
REMARK  149  A    between atoms: _372  and  _374
REMARK  150  A    between atoms: _374  and  _375
REMARK  151  A    between atoms: _374  and  _377
REMARK  152  A    between atoms: _377  and  _378
REMARK  153  A    between atoms: _383  and  _384
REMARK  154  A    between atoms: _386  and  _388
REMARK  155  A    between atoms: _388  and  _389
REMARK  156  A    between atoms: _388  and  _391
REMARK  157  A    between atoms: _391  and  _392
REMARK  158  A    between atoms: _392  and  _393
REMARK  159  A    between atoms: _398  and  _400
REMARK  160  A    between atoms: _400  and  _401
REMARK  161  A    between atoms: _400  and  _403
REMARK  162  A    between atoms: _403  and  _404
REMARK  163  A    between atoms: _407  and  _409
REMARK  164  A    between atoms: _409  and  _410
REMARK  165  A    between atoms: _409  and  _412
REMARK  166  A    between atoms: _412  and  _413
REMARK  167  A    between atoms: _416  and  _418
REMARK  168  A    between atoms: _418  and  _419
REMARK  169  A    between atoms: _418  and  _421
REMARK  170  A    between atoms: _424  and  _426
REMARK  171  A    between atoms: _426  and  _427
REMARK  172  A    between atoms: _429  and  _431
REMARK  173  A    between atoms: _431  and  _432
REMARK  174  A    between atoms: _431  and  _434
REMARK  175  A    between atoms: _438  and  _439
REMARK  176  A    between atoms: _444  and  _446
REMARK  177  A    between atoms: _446  and  _447
REMARK  178  A    between atoms: _446  and  _449
REMARK  179  A    between atoms: _449  and  _450
REMARK  180  A    between atoms: _453  and  _455
REMARK  181  A    between atoms: _455  and  _456
REMARK  182  A    between atoms: _455  and  _458
REMARK  183  A    between atoms: _461  and  _463
REMARK  184  A    between atoms: _463  and  _464
REMARK  185  A    between atoms: _463  and  _466
REMARK  186  A    between atoms: _466  and  _467
REMARK  187  A    between atoms: _467  and  _468
REMARK  188  A    between atoms: _468  and  _469
REMARK  189  A    between atoms: _478  and  _480
REMARK  190  A    between atoms: _480  and  _481
REMARK  191  A    between atoms: _480  and  _483
REMARK  192  A    between atoms: _483  and  _484
REMARK  193  A    between atoms: _484  and  _485
REMARK  194  A    between atoms: _488  and  _490
REMARK  195  A    between atoms: _490  and  _491
REMARK  196  A    between atoms: _490  and  _493
REMARK  197  A    between atoms: _493  and  _494
REMARK  198  A    between atoms: _497  and  _499
REMARK  199  A    between atoms: _499  and  _500
REMARK  200  A    between atoms: _503  and  _505
REMARK  201  A    between atoms: _505  and  _506
REMARK  202  A    between atoms: _505  and  _508
REMARK  203  A    between atoms: _508  and  _509
REMARK  204  A    between atoms: _509  and  _510
REMARK  205  A    between atoms: _512  and  _514
REMARK  206  A    between atoms: _514  and  _515
REMARK  207  A    between atoms: _514  and  _517
REMARK  208  A    between atoms: _517  and  _518
REMARK  209  A    between atoms: _520  and  _522
REMARK  210  A    between atoms: _522  and  _523
REMARK  211  A    between atoms: _522  and  _525
REMARK  212  A    between atoms: _525  and  _526
REMARK  213  A    between atoms: _528  and  _530
REMARK  214  A    between atoms: _530  and  _531
REMARK  215  A    between atoms: _530  and  _533
REMARK  216  A    between atoms: _533  and  _534
REMARK  217  A    between atoms: _534  and  _535
REMARK  218  A    between atoms: _535  and  _536
REMARK  219  A    between atoms: _545  and  _547
REMARK  220  A    between atoms: _547  and  _548
REMARK  221  A    between atoms: _547  and  _550
REMARK  222  A    between atoms: _550  and  _551
REMARK  223  A    between atoms: _556  and  _558
REMARK  224  A    between atoms: _558  and  _559
REMARK  225  A    between atoms: _558  and  _561
REMARK  226  A    between atoms: _561  and  _562
REMARK                            x       y       z     vdW  Elec       q    Type
REMARK                         _______ _______ _______ _____ _____    ______ ____
ROOT
ATOM      1  O   HOH     1      12.567   3.271  -8.526  0.00  0.00    +0.000 OA
ENDROOT
TORSDOF 0
REMARK  Name = ../refined-set-2016/3cow/3cow_pocket.pdb
REMARK  226 active torsions:
REMARK  status: ('A' for Active; 'I' for Inactive)
REMARK    1  A    between atoms: _1  and  _3
REMARK    2  A    between atoms: _3  and  _4
REMARK    3  A    between atoms: _3  and  _6
REMARK    4  A    between atoms: _10  and  _11
REMARK    5  A    between atoms: _16  and  _18
REMARK    6  A    between atoms: _18  and  _19
REMARK    7  A    between atoms: _18  and  _21
REMARK    8  A    between atoms: _21  and  _22
REMARK    9  A    between atoms: _25  and  _27
REMARK   10  A    between atoms: _27  and  _28
REMARK   11  A    between atoms: _27  and  _30
REMARK   12  A    between atoms: _30  and  _31
REMARK   13  A    between atoms: _31  and  _32
REMARK   14  A    between atoms: _34  and  _36
REMARK   15  A    between atoms: _36  and  _37
REMARK   16  A    between atoms: _39  and  _41
REMARK   17  A    between atoms: _41  and  _42
REMARK   18  A    between atoms: _45  and  _47
REMARK   19  A    between atoms: _47  and  _48
REMARK   20  A    between atoms: _47  and  _50
REMARK   21  A    between atoms: _50  and  _51
REMARK   22  A    between atoms: _54  and  _56
REMARK   23  A    between atoms: _56  and  _57
REMARK   24  A    between atoms: _56  and  _59
REMARK   25  A    between atoms: _59  and  _60
REMARK   26  A    between atoms: _65  and  _67
REMARK   27  A    between atoms: _67  and  _68
REMARK   28  A    between atoms: _67  and  _70
REMARK   29  A    between atoms: _70  and  _71
REMARK   30  A    between atoms: _71  and  _72
REMARK   31  A    between atoms: _75  and  _77
REMARK   32  A    between atoms: _77  and  _78
REMARK   33  A    between atoms: _80  and  _82
REMARK   34  A    between atoms: _82  and  _83
REMARK   35  A    between atoms: _82  and  _85
REMARK   36  A    between atoms: _85  and  _86
REMARK   37  A    between atoms: _91  and  _93
REMARK   38  A    between atoms: _93  and  _94
REMARK   39  A    between atoms: _93  and  _96
REMARK   40  A    between atoms: _96  and  _97
REMARK   41  A    between atoms: _100  and  _102
REMARK   42  A    between atoms: _102  and  _103
REMARK   43  A    between atoms: _106  and  _108
REMARK   44  A    between atoms: _108  and  _109
REMARK   45  A    between atoms: _108  and  _111
REMARK   46  A    between atoms: _111  and  _112
REMARK   47  A    between atoms: _115  and  _117
REMARK   48  A    between atoms: _117  and  _118
REMARK   49  A    between atoms: _117  and  _120
REMARK   50  A    between atoms: _123  and  _125
REMARK   51  A    between atoms: _125  and  _126
REMARK   52  A    between atoms: _125  and  _128
REMARK   53  A    between atoms: _128  and  _129
REMARK   54  A    between atoms: _131  and  _133
REMARK   55  A    between atoms: _133  and  _134
REMARK   56  A    between atoms: _133  and  _136
REMARK   57  A    between atoms: _136  and  _137
REMARK   58  A    between atoms: _140  and  _142
REMARK   59  A    between atoms: _142  and  _143
REMARK   60  A    between atoms: _142  and  _145
REMARK   61  A    between atoms: _145  and  _146
REMARK   62  A    between atoms: _152  and  _154
REMARK   63  A    between atoms: _154  and  _155
REMARK   64  A    between atoms: _154  and  _157
REMARK   65  A    between atoms: _160  and  _162
REMARK   66  A    between atoms: _162  and  _163
REMARK   67  A    between atoms: _162  and  _165
REMARK   68  A    between atoms: _165  and  _166
REMARK   69  A    between atoms: _171  and  _173
REMARK   70  A    between atoms: _173  and  _174
REMARK   71  A    between atoms: _173  and  _176
REMARK   72  A    between atoms: _176  and  _177
REMARK   73  A    between atoms: _177  and  _178
REMARK   74  A    between atoms: _183  and  _185
REMARK   75  A    between atoms: _185  and  _186
REMARK   76  A    between atoms: _185  and  _188
REMARK   77  A    between atoms: _188  and  _189
REMARK   78  A    between atoms: _195  and  _197
REMARK   79  A    between atoms: _197  and  _198
REMARK   80  A    between atoms: _197  and  _200
REMARK   81  A    between atoms: _200  and  _201
REMARK   82  A    between atoms: _206  and  _207
REMARK   83  A    between atoms: _209  and  _211
REMARK   84  A    between atoms: _211  and  _212
REMARK   85  A    between atoms: _211  and  _214
REMARK   86  A    between atoms: _214  and  _215
REMARK   87  A    between atoms: _220  and  _221
REMARK   88  A    between atoms: _223  and  _225
REMARK   89  A    between atoms: _225  and  _226
REMARK   90  A    between atoms: _225  and  _228
REMARK   91  A    between atoms: _228  and  _229
REMARK   92  A    between atoms: _234  and  _236
REMARK   93  A    between atoms: _236  and  _237
REMARK   94  A    between atoms: _236  and  _239
REMARK   95  A    between atoms: _239  and  _240
REMARK   96  A    between atoms: _246  and  _248
REMARK   97  A    between atoms: _248  and  _249
REMARK   98  A    between atoms: _251  and  _253
REMARK   99  A    between atoms: _253  and  _254
REMARK  100  A    between atoms: _253  and  _256
REMARK  101  A    between atoms: _259  and  _261
REMARK  102  A    between atoms: _261  and  _262
REMARK  103  A    between atoms: _261  and  _264
REMARK  104  A    between atoms: _264  and  _265
REMARK  105  A    between atoms: _268  and  _270
REMARK  106  A    between atoms: _270  and  _271
REMARK  107  A    between atoms: _270  and  _273
REMARK  108  A    between atoms: _273  and  _274
REMARK  109  A    between atoms: _277  and  _279
REMARK  110  A    between atoms: _279  and  _280
REMARK  111  A    between atoms: _279  and  _282
REMARK  112  A    between atoms: _285  and  _287
REMARK  113  A    between atoms: _287  and  _288
REMARK  114  A    between atoms: _287  and  _290
REMARK  115  A    between atoms: _293  and  _295
REMARK  116  A    between atoms: _295  and  _296
REMARK  117  A    between atoms: _295  and  _298
REMARK  118  A    between atoms: _298  and  _299
REMARK  119  A    between atoms: _302  and  _304
REMARK  120  A    between atoms: _304  and  _305
REMARK  121  A    between atoms: _304  and  _307
REMARK  122  A    between atoms: _307  and  _308
REMARK  123  A    between atoms: _311  and  _313
REMARK  124  A    between atoms: _313  and  _314
REMARK  125  A    between atoms: _313  and  _316
REMARK  126  A    between atoms: _316  and  _317
REMARK  127  A    between atoms: _323  and  _325
REMARK  128  A    between atoms: _325  and  _326
REMARK  129  A    between atoms: _325  and  _328
REMARK  130  A    between atoms: _328  and  _329
REMARK  131  A    between atoms: _335  and  _337
REMARK  132  A    between atoms: _337  and  _338
REMARK  133  A    between atoms: _340  and  _342
REMARK  134  A    between atoms: _342  and  _343
REMARK  135  A    between atoms: _342  and  _345
REMARK  136  A    between atoms: _345  and  _346
REMARK  137  A    between atoms: _346  and  _347
REMARK  138  A    between atoms: _350  and  _352
REMARK  139  A    between atoms: _352  and  _353
REMARK  140  A    between atoms: _352  and  _355
REMARK  141  A    between atoms: _355  and  _356
REMARK  142  A    between atoms: _356  and  _357
REMARK  143  A    between atoms: _357  and  _358
REMARK  144  A    between atoms: _358  and  _359
REMARK  145  A    between atoms: _363  and  _365
REMARK  146  A    between atoms: _365  and  _366
REMARK  147  A    between atoms: _365  and  _368
REMARK  148  A    between atoms: _368  and  _369
REMARK  149  A    between atoms: _372  and  _374
REMARK  150  A    between atoms: _374  and  _375
REMARK  151  A    between atoms: _374  and  _377
REMARK  152  A    between atoms: _377  and  _378
REMARK  153  A    between atoms: _383  and  _384
REMARK  154  A    between atoms: _386  and  _388
REMARK  155  A    between atoms: _388  and  _389
REMARK  156  A    between atoms: _388  and  _391
REMARK  157  A    between atoms: _391  and  _392
REMARK  158  A    between atoms: _392  and  _393
REMARK  159  A    between atoms: _398  and  _400
REMARK  160  A    between atoms: _400  and  _401
REMARK  161  A    between atoms: _400  and  _403
REMARK  162  A    between atoms: _403  and  _404
REMARK  163  A    between atoms: _407  and  _409
REMARK  164  A    between atoms: _409  and  _410
REMARK  165  A    between atoms: _409  and  _412
REMARK  166  A    between atoms: _412  and  _413
REMARK  167  A    between atoms: _416  and  _418
REMARK  168  A    between atoms: _418  and  _419
REMARK  169  A    between atoms: _418  and  _421
REMARK  170  A    between atoms: _424  and  _426
REMARK  171  A    between atoms: _426  and  _427
REMARK  172  A    between atoms: _429  and  _431
REMARK  173  A    between atoms: _431  and  _432
REMARK  174  A    between atoms: _431  and  _434
REMARK  175  A    between atoms: _438  and  _439
REMARK  176  A    between atoms: _444  and  _446
REMARK  177  A    between atoms: _446  and  _447
REMARK  178  A    between atoms: _446  and  _449
REMARK  179  A    between atoms: _449  and  _450
REMARK  180  A    between atoms: _453  and  _455
REMARK  181  A    between atoms: _455  and  _456
REMARK  182  A    between atoms: _455  and  _458
REMARK  183  A    between atoms: _461  and  _463
REMARK  184  A    between atoms: _463  and  _464
REMARK  185  A    between atoms: _463  and  _466
REMARK  186  A    between atoms: _466  and  _467
REMARK  187  A    between atoms: _467  and  _468
REMARK  188  A    between atoms: _468  and  _469
REMARK  189  A    between atoms: _478  and  _480
REMARK  190  A    between atoms: _480  and  _481
REMARK  191  A    between atoms: _480  and  _483
REMARK  192  A    between atoms: _483  and  _484
REMARK  193  A    between atoms: _484  and  _485
REMARK  194  A    between atoms: _488  and  _490
REMARK  195  A    between atoms: _490  and  _491
REMARK  196  A    between atoms: _490  and  _493
REMARK  197  A    between atoms: _493  and  _494
REMARK  198  A    between atoms: _497  and  _499
REMARK  199  A    between atoms: _499  and  _500
REMARK  200  A    between atoms: _503  and  _505
REMARK  201  A    between atoms: _505  and  _506
REMARK  202  A    between atoms: _505  and  _508
REMARK  203  A    between atoms: _508  and  _509
REMARK  204  A    between atoms: _509  and  _510
REMARK  205  A    between atoms: _512  and  _514
REMARK  206  A    between atoms: _514  and  _515
REMARK  207  A    between atoms: _514  and  _517
REMARK  208  A    between atoms: _517  and  _518
REMARK  209  A    between atoms: _520  and  _522
REMARK  210  A    between atoms: _522  and  _523
REMARK  211  A    between atoms: _522  and  _525
REMARK  212  A    between atoms: _525  and  _526
REMARK  213  A    between atoms: _528  and  _530
REMARK  214  A    between atoms: _530  and  _531
REMARK  215  A    between atoms: _530  and  _533
REMARK  216  A    between atoms: _533  and  _534
REMARK  217  A    between atoms: _534  and  _535
REMARK  218  A    between atoms: _535  and  _536
REMARK  219  A    between atoms: _545  and  _547
REMARK  220  A    between atoms: _547  and  _548
REMARK  221  A    between atoms: _547  and  _550
REMARK  222  A    between atoms: _550  and  _551
REMARK  223  A    between atoms: _556  and  _558
REMARK  224  A    between atoms: _558  and  _559
REMARK  225  A    between atoms: _558  and  _561
REMARK  226  A    between atoms: _561  and  _562
REMARK                            x       y       z     vdW  Elec       q    Type
REMARK                         _______ _______ _______ _____ _____    ______ ____
ROOT
ATOM      1  O   HOH     1      13.675   5.564 -11.264  0.00  0.00    +0.000 OA
ENDROOT
TORSDOF 0
REMARK  Name = ../refined-set-2016/3cow/3cow_pocket.pdb
REMARK  226 active torsions:
REMARK  status: ('A' for Active; 'I' for Inactive)
REMARK    1  A    between atoms: _1  and  _3
REMARK    2  A    between atoms: _3  and  _4
REMARK    3  A    between atoms: _3  and  _6
REMARK    4  A    between atoms: _10  and  _11
REMARK    5  A    between atoms: _16  and  _18
REMARK    6  A    between atoms: _18  and  _19
REMARK    7  A    between atoms: _18  and  _21
REMARK    8  A    between atoms: _21  and  _22
REMARK    9  A    between atoms: _25  and  _27
REMARK   10  A    between atoms: _27  and  _28
REMARK   11  A    between atoms: _27  and  _30
REMARK   12  A    between atoms: _30  and  _31
REMARK   13  A    between atoms: _31  and  _32
REMARK   14  A    between atoms: _34  and  _36
REMARK   15  A    between atoms: _36  and  _37
REMARK   16  A    between atoms: _39  and  _41
REMARK   17  A    between atoms: _41  and  _42
REMARK   18  A    between atoms: _45  and  _47
REMARK   19  A    between atoms: _47  and  _48
REMARK   20  A    between atoms: _47  and  _50
REMARK   21  A    between atoms: _50  and  _51
REMARK   22  A    between atoms: _54  and  _56
REMARK   23  A    between atoms: _56  and  _57
REMARK   24  A    between atoms: _56  and  _59
REMARK   25  A    between atoms: _59  and  _60
REMARK   26  A    between atoms: _65  and  _67
REMARK   27  A    between atoms: _67  and  _68
REMARK   28  A    between atoms: _67  and  _70
REMARK   29  A    between atoms: _70  and  _71
REMARK   30  A    between atoms: _71  and  _72
REMARK   31  A    between atoms: _75  and  _77
REMARK   32  A    between atoms: _77  and  _78
REMARK   33  A    between atoms: _80  and  _82
REMARK   34  A    between atoms: _82  and  _83
REMARK   35  A    between atoms: _82  and  _85
REMARK   36  A    between atoms: _85  and  _86
REMARK   37  A    between atoms: _91  and  _93
REMARK   38  A    between atoms: _93  and  _94
REMARK   39  A    between atoms: _93  and  _96
REMARK   40  A    between atoms: _96  and  _97
REMARK   41  A    between atoms: _100  and  _102
REMARK   42  A    between atoms: _102  and  _103
REMARK   43  A    between atoms: _106  and  _108
REMARK   44  A    between atoms: _108  and  _109
REMARK   45  A    between atoms: _108  and  _111
REMARK   46  A    between atoms: _111  and  _112
REMARK   47  A    between atoms: _115  and  _117
REMARK   48  A    between atoms: _117  and  _118
REMARK   49  A    between atoms: _117  and  _120
REMARK   50  A    between atoms: _123  and  _125
REMARK   51  A    between atoms: _125  and  _126
REMARK   52  A    between atoms: _125  and  _128
REMARK   53  A    between atoms: _128  and  _129
REMARK   54  A    between atoms: _131  and  _133
REMARK   55  A    between atoms: _133  and  _134
REMARK   56  A    between atoms: _133  and  _136
REMARK   57  A    between atoms: _136  and  _137
REMARK   58  A    between atoms: _140  and  _142
REMARK   59  A    between atoms: _142  and  _143
REMARK   60  A    between atoms: _142  and  _145
REMARK   61  A    between atoms: _145  and  _146
REMARK   62  A    between atoms: _152  and  _154
REMARK   63  A    between atoms: _154  and  _155
REMARK   64  A    between atoms: _154  and  _157
REMARK   65  A    between atoms: _160  and  _162
REMARK   66  A    between atoms: _162  and  _163
REMARK   67  A    between atoms: _162  and  _165
REMARK   68  A    between atoms: _165  and  _166
REMARK   69  A    between atoms: _171  and  _173
REMARK   70  A    between atoms: _173  and  _174
REMARK   71  A    between atoms: _173  and  _176
REMARK   72  A    between atoms: _176  and  _177
REMARK   73  A    between atoms: _177  and  _178
REMARK   74  A    between atoms: _183  and  _185
REMARK   75  A    between atoms: _185  and  _186
REMARK   76  A    between atoms: _185  and  _188
REMARK   77  A    between atoms: _188  and  _189
REMARK   78  A    between atoms: _195  and  _197
REMARK   79  A    between atoms: _197  and  _198
REMARK   80  A    between atoms: _197  and  _200
REMARK   81  A    between atoms: _200  and  _201
REMARK   82  A    between atoms: _206  and  _207
REMARK   83  A    between atoms: _209  and  _211
REMARK   84  A    between atoms: _211  and  _212
REMARK   85  A    between atoms: _211  and  _214
REMARK   86  A    between atoms: _214  and  _215
REMARK   87  A    between atoms: _220  and  _221
REMARK   88  A    between atoms: _223  and  _225
REMARK   89  A    between atoms: _225  and  _226
REMARK   90  A    between atoms: _225  and  _228
REMARK   91  A    between atoms: _228  and  _229
REMARK   92  A    between atoms: _234  and  _236
REMARK   93  A    between atoms: _236  and  _237
REMARK   94  A    between atoms: _236  and  _239
REMARK   95  A    between atoms: _239  and  _240
REMARK   96  A    between atoms: _246  and  _248
REMARK   97  A    between atoms: _248  and  _249
REMARK   98  A    between atoms: _251  and  _253
REMARK   99  A    between atoms: _253  and  _254
REMARK  100  A    between atoms: _253  and  _256
REMARK  101  A    between atoms: _259  and  _261
REMARK  102  A    between atoms: _261  and  _262
REMARK  103  A    between atoms: _261  and  _264
REMARK  104  A    between atoms: _264  and  _265
REMARK  105  A    between atoms: _268  and  _270
REMARK  106  A    between atoms: _270  and  _271
REMARK  107  A    between atoms: _270  and  _273
REMARK  108  A    between atoms: _273  and  _274
REMARK  109  A    between atoms: _277  and  _279
REMARK  110  A    between atoms: _279  and  _280
REMARK  111  A    between atoms: _279  and  _282
REMARK  112  A    between atoms: _285  and  _287
REMARK  113  A    between atoms: _287  and  _288
REMARK  114  A    between atoms: _287  and  _290
REMARK  115  A    between atoms: _293  and  _295
REMARK  116  A    between atoms: _295  and  _296
REMARK  117  A    between atoms: _295  and  _298
REMARK  118  A    between atoms: _298  and  _299
REMARK  119  A    between atoms: _302  and  _304
REMARK  120  A    between atoms: _304  and  _305
REMARK  121  A    between atoms: _304  and  _307
REMARK  122  A    between atoms: _307  and  _308
REMARK  123  A    between atoms: _311  and  _313
REMARK  124  A    between atoms: _313  and  _314
REMARK  125  A    between atoms: _313  and  _316
REMARK  126  A    between atoms: _316  and  _317
REMARK  127  A    between atoms: _323  and  _325
REMARK  128  A    between atoms: _325  and  _326
REMARK  129  A    between atoms: _325  and  _328
REMARK  130  A    between atoms: _328  and  _329
REMARK  131  A    between atoms: _335  and  _337
REMARK  132  A    between atoms: _337  and  _338
REMARK  133  A    between atoms: _340  and  _342
REMARK  134  A    between atoms: _342  and  _343
REMARK  135  A    between atoms: _342  and  _345
REMARK  136  A    between atoms: _345  and  _346
REMARK  137  A    between atoms: _346  and  _347
REMARK  138  A    between atoms: _350  and  _352
REMARK  139  A    between atoms: _352  and  _353
REMARK  140  A    between atoms: _352  and  _355
REMARK  141  A    between atoms: _355  and  _356
REMARK  142  A    between atoms: _356  and  _357
REMARK  143  A    between atoms: _357  and  _358
REMARK  144  A    between atoms: _358  and  _359
REMARK  145  A    between atoms: _363  and  _365
REMARK  146  A    between atoms: _365  and  _366
REMARK  147  A    between atoms: _365  and  _368
REMARK  148  A    between atoms: _368  and  _369
REMARK  149  A    between atoms: _372  and  _374
REMARK  150  A    between atoms: _374  and  _375
REMARK  151  A    between atoms: _374  and  _377
REMARK  152  A    between atoms: _377  and  _378
REMARK  153  A    between atoms: _383  and  _384
REMARK  154  A    between atoms: _386  and  _388
REMARK  155  A    between atoms: _388  and  _389
REMARK  156  A    between atoms: _388  and  _391
REMARK  157  A    between atoms: _391  and  _392
REMARK  158  A    between atoms: _392  and  _393
REMARK  159  A    between atoms: _398  and  _400
REMARK  160  A    between atoms: _400  and  _401
REMARK  161  A    between atoms: _400  and  _403
REMARK  162  A    between atoms: _403  and  _404
REMARK  163  A    between atoms: _407  and  _409
REMARK  164  A    between atoms: _409  and  _410
REMARK  165  A    between atoms: _409  and  _412
REMARK  166  A    between atoms: _412  and  _413
REMARK  167  A    between atoms: _416  and  _418
REMARK  168  A    between atoms: _418  and  _419
REMARK  169  A    between atoms: _418  and  _421
REMARK  170  A    between atoms: _424  and  _426
REMARK  171  A    between atoms: _426  and  _427
REMARK  172  A    between atoms: _429  and  _431
REMARK  173  A    between atoms: _431  and  _432
REMARK  174  A    between atoms: _431  and  _434
REMARK  175  A    between atoms: _438  and  _439
REMARK  176  A    between atoms: _444  and  _446
REMARK  177  A    between atoms: _446  and  _447
REMARK  178  A    between atoms: _446  and  _449
REMARK  179  A    between atoms: _449  and  _450
REMARK  180  A    between atoms: _453  and  _455
REMARK  181  A    between atoms: _455  and  _456
REMARK  182  A    between atoms: _455  and  _458
REMARK  183  A    between atoms: _461  and  _463
REMARK  184  A    between atoms: _463  and  _464
REMARK  185  A    between atoms: _463  and  _466
REMARK  186  A    between atoms: _466  and  _467
REMARK  187  A    between atoms: _467  and  _468
REMARK  188  A    between atoms: _468  and  _469
REMARK  189  A    between atoms: _478  and  _480
REMARK  190  A    between atoms: _480  and  _481
REMARK  191  A    between atoms: _480  and  _483
REMARK  192  A    between atoms: _483  and  _484
REMARK  193  A    between atoms: _484  and  _485
REMARK  194  A    between atoms: _488  and  _490
REMARK  195  A    between atoms: _490  and  _491
REMARK  196  A    between atoms: _490  and  _493
REMARK  197  A    between atoms: _493  and  _494
REMARK  198  A    between atoms: _497  and  _499
REMARK  199  A    between atoms: _499  and  _500
REMARK  200  A    between atoms: _503  and  _505
REMARK  201  A    between atoms: _505  and  _506
REMARK  202  A    between atoms: _505  and  _508
REMARK  203  A    between atoms: _508  and  _509
REMARK  204  A    between atoms: _509  and  _510
REMARK  205  A    between atoms: _512  and  _514
REMARK  206  A    between atoms: _514  and  _515
REMARK  207  A    between atoms: _514  and  _517
REMARK  208  A    between atoms: _517  and  _518
REMARK  209  A    between atoms: _520  and  _522
REMARK  210  A    between atoms: _522  and  _523
REMARK  211  A    between atoms: _522  and  _525
REMARK  212  A    between atoms: _525  and  _526
REMARK  213  A    between atoms: _528  and  _530
REMARK  214  A    between atoms: _530  and  _531
REMARK  215  A    between atoms: _530  and  _533
REMARK  216  A    between atoms: _533  and  _534
REMARK  217  A    between atoms: _534  and  _535
REMARK  218  A    between atoms: _535  and  _536
REMARK  219  A    between atoms: _545  and  _547
REMARK  220  A    between atoms: _547  and  _548
REMARK  221  A    between atoms: _547  and  _550
REMARK  222  A    between atoms: _550  and  _551
REMARK  223  A    between atoms: _556  and  _558
REMARK  224  A    between atoms: _558  and  _559
REMARK  225  A    between atoms: _558  and  _561
REMARK  226  A    between atoms: _561  and  _562
REMARK                            x       y       z     vdW  Elec       q    Type
REMARK                         _______ _______ _______ _____ _____    ______ ____
ROOT
ATOM      1  O   HOH     1       8.768   9.090  -8.369  0.00  0.00    +0.000 OA
ENDROOT
TORSDOF 0
REMARK  Name = ../refined-set-2016/3cow/3cow_pocket.pdb
REMARK  226 active torsions:
REMARK  status: ('A' for Active; 'I' for Inactive)
REMARK    1  A    between atoms: _1  and  _3
REMARK    2  A    between atoms: _3  and  _4
REMARK    3  A    between atoms: _3  and  _6
REMARK    4  A    between atoms: _10  and  _11
REMARK    5  A    between atoms: _16  and  _18
REMARK    6  A    between atoms: _18  and  _19
REMARK    7  A    between atoms: _18  and  _21
REMARK    8  A    between atoms: _21  and  _22
REMARK    9  A    between atoms: _25  and  _27
REMARK   10  A    between atoms: _27  and  _28
REMARK   11  A    between atoms: _27  and  _30
REMARK   12  A    between atoms: _30  and  _31
REMARK   13  A    between atoms: _31  and  _32
REMARK   14  A    between atoms: _34  and  _36
REMARK   15  A    between atoms: _36  and  _37
REMARK   16  A    between atoms: _39  and  _41
REMARK   17  A    between atoms: _41  and  _42
REMARK   18  A    between atoms: _45  and  _47
REMARK   19  A    between atoms: _47  and  _48
REMARK   20  A    between atoms: _47  and  _50
REMARK   21  A    between atoms: _50  and  _51
REMARK   22  A    between atoms: _54  and  _56
REMARK   23  A    between atoms: _56  and  _57
REMARK   24  A    between atoms: _56  and  _59
REMARK   25  A    between atoms: _59  and  _60
REMARK   26  A    between atoms: _65  and  _67
REMARK   27  A    between atoms: _67  and  _68
REMARK   28  A    between atoms: _67  and  _70
REMARK   29  A    between atoms: _70  and  _71
REMARK   30  A    between atoms: _71  and  _72
REMARK   31  A    between atoms: _75  and  _77
REMARK   32  A    between atoms: _77  and  _78
REMARK   33  A    between atoms: _80  and  _82
REMARK   34  A    between atoms: _82  and  _83
REMARK   35  A    between atoms: _82  and  _85
REMARK   36  A    between atoms: _85  and  _86
REMARK   37  A    between atoms: _91  and  _93
REMARK   38  A    between atoms: _93  and  _94
REMARK   39  A    between atoms: _93  and  _96
REMARK   40  A    between atoms: _96  and  _97
REMARK   41  A    between atoms: _100  and  _102
REMARK   42  A    between atoms: _102  and  _103
REMARK   43  A    between atoms: _106  and  _108
REMARK   44  A    between atoms: _108  and  _109
REMARK   45  A    between atoms: _108  and  _111
REMARK   46  A    between atoms: _111  and  _112
REMARK   47  A    between atoms: _115  and  _117
REMARK   48  A    between atoms: _117  and  _118
REMARK   49  A    between atoms: _117  and  _120
REMARK   50  A    between atoms: _123  and  _125
REMARK   51  A    between atoms: _125  and  _126
REMARK   52  A    between atoms: _125  and  _128
REMARK   53  A    between atoms: _128  and  _129
REMARK   54  A    between atoms: _131  and  _133
REMARK   55  A    between atoms: _133  and  _134
REMARK   56  A    between atoms: _133  and  _136
REMARK   57  A    between atoms: _136  and  _137
REMARK   58  A    between atoms: _140  and  _142
REMARK   59  A    between atoms: _142  and  _143
REMARK   60  A    between atoms: _142  and  _145
REMARK   61  A    between atoms: _145  and  _146
REMARK   62  A    between atoms: _152  and  _154
REMARK   63  A    between atoms: _154  and  _155
REMARK   64  A    between atoms: _154  and  _157
REMARK   65  A    between atoms: _160  and  _162
REMARK   66  A    between atoms: _162  and  _163
REMARK   67  A    between atoms: _162  and  _165
REMARK   68  A    between atoms: _165  and  _166
REMARK   69  A    between atoms: _171  and  _173
REMARK   70  A    between atoms: _173  and  _174
REMARK   71  A    between atoms: _173  and  _176
REMARK   72  A    between atoms: _176  and  _177
REMARK   73  A    between atoms: _177  and  _178
REMARK   74  A    between atoms: _183  and  _185
REMARK   75  A    between atoms: _185  and  _186
REMARK   76  A    between atoms: _185  and  _188
REMARK   77  A    between atoms: _188  and  _189
REMARK   78  A    between atoms: _195  and  _197
REMARK   79  A    between atoms: _197  and  _198
REMARK   80  A    between atoms: _197  and  _200
REMARK   81  A    between atoms: _200  and  _201
REMARK   82  A    between atoms: _206  and  _207
REMARK   83  A    between atoms: _209  and  _211
REMARK   84  A    between atoms: _211  and  _212
REMARK   85  A    between atoms: _211  and  _214
REMARK   86  A    between atoms: _214  and  _215
REMARK   87  A    between atoms: _220  and  _221
REMARK   88  A    between atoms: _223  and  _225
REMARK   89  A    between atoms: _225  and  _226
REMARK   90  A    between atoms: _225  and  _228
REMARK   91  A    between atoms: _228  and  _229
REMARK   92  A    between atoms: _234  and  _236
REMARK   93  A    between atoms: _236  and  _237
REMARK   94  A    between atoms: _236  and  _239
REMARK   95  A    between atoms: _239  and  _240
REMARK   96  A    between atoms: _246  and  _248
REMARK   97  A    between atoms: _248  and  _249
REMARK   98  A    between atoms: _251  and  _253
REMARK   99  A    between atoms: _253  and  _254
REMARK  100  A    between atoms: _253  and  _256
REMARK  101  A    between atoms: _259  and  _261
REMARK  102  A    between atoms: _261  and  _262
REMARK  103  A    between atoms: _261  and  _264
REMARK  104  A    between atoms: _264  and  _265
REMARK  105  A    between atoms: _268  and  _270
REMARK  106  A    between atoms: _270  and  _271
REMARK  107  A    between atoms: _270  and  _273
REMARK  108  A    between atoms: _273  and  _274
REMARK  109  A    between atoms: _277  and  _279
REMARK  110  A    between atoms: _279  and  _280
REMARK  111  A    between atoms: _279  and  _282
REMARK  112  A    between atoms: _285  and  _287
REMARK  113  A    between atoms: _287  and  _288
REMARK  114  A    between atoms: _287  and  _290
REMARK  115  A    between atoms: _293  and  _295
REMARK  116  A    between atoms: _295  and  _296
REMARK  117  A    between atoms: _295  and  _298
REMARK  118  A    between atoms: _298  and  _299
REMARK  119  A    between atoms: _302  and  _304
REMARK  120  A    between atoms: _304  and  _305
REMARK  121  A    between atoms: _304  and  _307
REMARK  122  A    between atoms: _307  and  _308
REMARK  123  A    between atoms: _311  and  _313
REMARK  124  A    between atoms: _313  and  _314
REMARK  125  A    between atoms: _313  and  _316
REMARK  126  A    between atoms: _316  and  _317
REMARK  127  A    between atoms: _323  and  _325
REMARK  128  A    between atoms: _325  and  _326
REMARK  129  A    between atoms: _325  and  _328
REMARK  130  A    between atoms: _328  and  _329
REMARK  131  A    between atoms: _335  and  _337
REMARK  132  A    between atoms: _337  and  _338
REMARK  133  A    between atoms: _340  and  _342
REMARK  134  A    between atoms: _342  and  _343
REMARK  135  A    between atoms: _342  and  _345
REMARK  136  A    between atoms: _345  and  _346
REMARK  137  A    between atoms: _346  and  _347
REMARK  138  A    between atoms: _350  and  _352
REMARK  139  A    between atoms: _352  and  _353
REMARK  140  A    between atoms: _352  and  _355
REMARK  141  A    between atoms: _355  and  _356
REMARK  142  A    between atoms: _356  and  _357
REMARK  143  A    between atoms: _357  and  _358
REMARK  144  A    between atoms: _358  and  _359
REMARK  145  A    between atoms: _363  and  _365
REMARK  146  A    between atoms: _365  and  _366
REMARK  147  A    between atoms: _365  and  _368
REMARK  148  A    between atoms: _368  and  _369
REMARK  149  A    between atoms: _372  and  _374
REMARK  150  A    between atoms: _374  and  _375
REMARK  151  A    between atoms: _374  and  _377
REMARK  152  A    between atoms: _377  and  _378
REMARK  153  A    between atoms: _383  and  _384
REMARK  154  A    between atoms: _386  and  _388
REMARK  155  A    between atoms: _388  and  _389
REMARK  156  A    between atoms: _388  and  _391
REMARK  157  A    between atoms: _391  and  _392
REMARK  158  A    between atoms: _392  and  _393
REMARK  159  A    between atoms: _398  and  _400
REMARK  160  A    between atoms: _400  and  _401
REMARK  161  A    between atoms: _400  and  _403
REMARK  162  A    between atoms: _403  and  _404
REMARK  163  A    between atoms: _407  and  _409
REMARK  164  A    between atoms: _409  and  _410
REMARK  165  A    between atoms: _409  and  _412
REMARK  166  A    between atoms: _412  and  _413
REMARK  167  A    between atoms: _416  and  _418
REMARK  168  A    between atoms: _418  and  _419
REMARK  169  A    between atoms: _418  and  _421
REMARK  170  A    between atoms: _424  and  _426
REMARK  171  A    between atoms: _426  and  _427
REMARK  172  A    between atoms: _429  and  _431
REMARK  173  A    between atoms: _431  and  _432
REMARK  174  A    between atoms: _431  and  _434
REMARK  175  A    between atoms: _438  and  _439
REMARK  176  A    between atoms: _444  and  _446
REMARK  177  A    between atoms: _446  and  _447
REMARK  178  A    between atoms: _446  and  _449
REMARK  179  A    between atoms: _449  and  _450
REMARK  180  A    between atoms: _453  and  _455
REMARK  181  A    between atoms: _455  and  _456
REMARK  182  A    between atoms: _455  and  _458
REMARK  183  A    between atoms: _461  and  _463
REMARK  184  A    between atoms: _463  and  _464
REMARK  185  A    between atoms: _463  and  _466
REMARK  186  A    between atoms: _466  and  _467
REMARK  187  A    between atoms: _467  and  _468
REMARK  188  A    between atoms: _468  and  _469
REMARK  189  A    between atoms: _478  and  _480
REMARK  190  A    between atoms: _480  and  _481
REMARK  191  A    between atoms: _480  and  _483
REMARK  192  A    between atoms: _483  and  _484
REMARK  193  A    between atoms: _484  and  _485
REMARK  194  A    between atoms: _488  and  _490
REMARK  195  A    between atoms: _490  and  _491
REMARK  196  A    between atoms: _490  and  _493
REMARK  197  A    between atoms: _493  and  _494
REMARK  198  A    between atoms: _497  and  _499
REMARK  199  A    between atoms: _499  and  _500
REMARK  200  A    between atoms: _503  and  _505
REMARK  201  A    between atoms: _505  and  _506
REMARK  202  A    between atoms: _505  and  _508
REMARK  203  A    between atoms: _508  and  _509
REMARK  204  A    between atoms: _509  and  _510
REMARK  205  A    between atoms: _512  and  _514
REMARK  206  A    between atoms: _514  and  _515
REMARK  207  A    between atoms: _514  and  _517
REMARK  208  A    between atoms: _517  and  _518
REMARK  209  A    between atoms: _520  and  _522
REMARK  210  A    between atoms: _522  and  _523
REMARK  211  A    between atoms: _522  and  _525
REMARK  212  A    between atoms: _525  and  _526
REMARK  213  A    between atoms: _528  and  _530
REMARK  214  A    between atoms: _530  and  _531
REMARK  215  A    between atoms: _530  and  _533
REMARK  216  A    between atoms: _533  and  _534
REMARK  217  A    between atoms: _534  and  _535
REMARK  218  A    between atoms: _535  and  _536
REMARK  219  A    between atoms: _545  and  _547
REMARK  220  A    between atoms: _547  and  _548
REMARK  221  A    between atoms: _547  and  _550
REMARK  222  A    between atoms: _550  and  _551
REMARK  223  A    between atoms: _556  and  _558
REMARK  224  A    between atoms: _558  and  _559
REMARK  225  A    between atoms: _558  and  _561
REMARK  226  A    between atoms: _561  and  _562
REMARK                            x       y       z     vdW  Elec       q    Type
REMARK                         _______ _______ _______ _____ _____    ______ ____
ROOT
ATOM      1  O   HOH     1      14.154  11.916  11.021  0.00  0.00    +0.000 OA
ENDROOT
TORSDOF 0
REMARK  Name = ../refined-set-2016/3cow/3cow_pocket.pdb
REMARK  226 active torsions:
REMARK  status: ('A' for Active; 'I' for Inactive)
REMARK    1  A    between atoms: _1  and  _3
REMARK    2  A    between atoms: _3  and  _4
REMARK    3  A    between atoms: _3  and  _6
REMARK    4  A    between atoms: _10  and  _11
REMARK    5  A    between atoms: _16  and  _18
REMARK    6  A    between atoms: _18  and  _19
REMARK    7  A    between atoms: _18  and  _21
REMARK    8  A    between atoms: _21  and  _22
REMARK    9  A    between atoms: _25  and  _27
REMARK   10  A    between atoms: _27  and  _28
REMARK   11  A    between atoms: _27  and  _30
REMARK   12  A    between atoms: _30  and  _31
REMARK   13  A    between atoms: _31  and  _32
REMARK   14  A    between atoms: _34  and  _36
REMARK   15  A    between atoms: _36  and  _37
REMARK   16  A    between atoms: _39  and  _41
REMARK   17  A    between atoms: _41  and  _42
REMARK   18  A    between atoms: _45  and  _47
REMARK   19  A    between atoms: _47  and  _48
REMARK   20  A    between atoms: _47  and  _50
REMARK   21  A    between atoms: _50  and  _51
REMARK   22  A    between atoms: _54  and  _56
REMARK   23  A    between atoms: _56  and  _57
REMARK   24  A    between atoms: _56  and  _59
REMARK   25  A    between atoms: _59  and  _60
REMARK   26  A    between atoms: _65  and  _67
REMARK   27  A    between atoms: _67  and  _68
REMARK   28  A    between atoms: _67  and  _70
REMARK   29  A    between atoms: _70  and  _71
REMARK   30  A    between atoms: _71  and  _72
REMARK   31  A    between atoms: _75  and  _77
REMARK   32  A    between atoms: _77  and  _78
REMARK   33  A    between atoms: _80  and  _82
REMARK   34  A    between atoms: _82  and  _83
REMARK   35  A    between atoms: _82  and  _85
REMARK   36  A    between atoms: _85  and  _86
REMARK   37  A    between atoms: _91  and  _93
REMARK   38  A    between atoms: _93  and  _94
REMARK   39  A    between atoms: _93  and  _96
REMARK   40  A    between atoms: _96  and  _97
REMARK   41  A    between atoms: _100  and  _102
REMARK   42  A    between atoms: _102  and  _103
REMARK   43  A    between atoms: _106  and  _108
REMARK   44  A    between atoms: _108  and  _109
REMARK   45  A    between atoms: _108  and  _111
REMARK   46  A    between atoms: _111  and  _112
REMARK   47  A    between atoms: _115  and  _117
REMARK   48  A    between atoms: _117  and  _118
REMARK   49  A    between atoms: _117  and  _120
REMARK   50  A    between atoms: _123  and  _125
REMARK   51  A    between atoms: _125  and  _126
REMARK   52  A    between atoms: _125  and  _128
REMARK   53  A    between atoms: _128  and  _129
REMARK   54  A    between atoms: _131  and  _133
REMARK   55  A    between atoms: _133  and  _134
REMARK   56  A    between atoms: _133  and  _136
REMARK   57  A    between atoms: _136  and  _137
REMARK   58  A    between atoms: _140  and  _142
REMARK   59  A    between atoms: _142  and  _143
REMARK   60  A    between atoms: _142  and  _145
REMARK   61  A    between atoms: _145  and  _146
REMARK   62  A    between atoms: _152  and  _154
REMARK   63  A    between atoms: _154  and  _155
REMARK   64  A    between atoms: _154  and  _157
REMARK   65  A    between atoms: _160  and  _162
REMARK   66  A    between atoms: _162  and  _163
REMARK   67  A    between atoms: _162  and  _165
REMARK   68  A    between atoms: _165  and  _166
REMARK   69  A    between atoms: _171  and  _173
REMARK   70  A    between atoms: _173  and  _174
REMARK   71  A    between atoms: _173  and  _176
REMARK   72  A    between atoms: _176  and  _177
REMARK   73  A    between atoms: _177  and  _178
REMARK   74  A    between atoms: _183  and  _185
REMARK   75  A    between atoms: _185  and  _186
REMARK   76  A    between atoms: _185  and  _188
REMARK   77  A    between atoms: _188  and  _189
REMARK   78  A    between atoms: _195  and  _197
REMARK   79  A    between atoms: _197  and  _198
REMARK   80  A    between atoms: _197  and  _200
REMARK   81  A    between atoms: _200  and  _201
REMARK   82  A    between atoms: _206  and  _207
REMARK   83  A    between atoms: _209  and  _211
REMARK   84  A    between atoms: _211  and  _212
REMARK   85  A    between atoms: _211  and  _214
REMARK   86  A    between atoms: _214  and  _215
REMARK   87  A    between atoms: _220  and  _221
REMARK   88  A    between atoms: _223  and  _225
REMARK   89  A    between atoms: _225  and  _226
REMARK   90  A    between atoms: _225  and  _228
REMARK   91  A    between atoms: _228  and  _229
REMARK   92  A    between atoms: _234  and  _236
REMARK   93  A    between atoms: _236  and  _237
REMARK   94  A    between atoms: _236  and  _239
REMARK   95  A    between atoms: _239  and  _240
REMARK   96  A    between atoms: _246  and  _248
REMARK   97  A    between atoms: _248  and  _249
REMARK   98  A    between atoms: _251  and  _253
REMARK   99  A    between atoms: _253  and  _254
REMARK  100  A    between atoms: _253  and  _256
REMARK  101  A    between atoms: _259  and  _261
REMARK  102  A    between atoms: _261  and  _262
REMARK  103  A    between atoms: _261  and  _264
REMARK  104  A    between atoms: _264  and  _265
REMARK  105  A    between atoms: _268  and  _270
REMARK  106  A    between atoms: _270  and  _271
REMARK  107  A    between atoms: _270  and  _273
REMARK  108  A    between atoms: _273  and  _274
REMARK  109  A    between atoms: _277  and  _279
REMARK  110  A    between atoms: _279  and  _280
REMARK  111  A    between atoms: _279  and  _282
REMARK  112  A    between atoms: _285  and  _287
REMARK  113  A    between atoms: _287  and  _288
REMARK  114  A    between atoms: _287  and  _290
REMARK  115  A    between atoms: _293  and  _295
REMARK  116  A    between atoms: _295  and  _296
REMARK  117  A    between atoms: _295  and  _298
REMARK  118  A    between atoms: _298  and  _299
REMARK  119  A    between atoms: _302  and  _304
REMARK  120  A    between atoms: _304  and  _305
REMARK  121  A    between atoms: _304  and  _307
REMARK  122  A    between atoms: _307  and  _308
REMARK  123  A    between atoms: _311  and  _313
REMARK  124  A    between atoms: _313  and  _314
REMARK  125  A    between atoms: _313  and  _316
REMARK  126  A    between atoms: _316  and  _317
REMARK  127  A    between atoms: _323  and  _325
REMARK  128  A    between atoms: _325  and  _326
REMARK  129  A    between atoms: _325  and  _328
REMARK  130  A    between atoms: _328  and  _329
REMARK  131  A    between atoms: _335  and  _337
REMARK  132  A    between atoms: _337  and  _338
REMARK  133  A    between atoms: _340  and  _342
REMARK  134  A    between atoms: _342  and  _343
REMARK  135  A    between atoms: _342  and  _345
REMARK  136  A    between atoms: _345  and  _346
REMARK  137  A    between atoms: _346  and  _347
REMARK  138  A    between atoms: _350  and  _352
REMARK  139  A    between atoms: _352  and  _353
REMARK  140  A    between atoms: _352  and  _355
REMARK  141  A    between atoms: _355  and  _356
REMARK  142  A    between atoms: _356  and  _357
REMARK  143  A    between atoms: _357  and  _358
REMARK  144  A    between atoms: _358  and  _359
REMARK  145  A    between atoms: _363  and  _365
REMARK  146  A    between atoms: _365  and  _366
REMARK  147  A    between atoms: _365  and  _368
REMARK  148  A    between atoms: _368  and  _369
REMARK  149  A    between atoms: _372  and  _374
REMARK  150  A    between atoms: _374  and  _375
REMARK  151  A    between atoms: _374  and  _377
REMARK  152  A    between atoms: _377  and  _378
REMARK  153  A    between atoms: _383  and  _384
REMARK  154  A    between atoms: _386  and  _388
REMARK  155  A    between atoms: _388  and  _389
REMARK  156  A    between atoms: _388  and  _391
REMARK  157  A    between atoms: _391  and  _392
REMARK  158  A    between atoms: _392  and  _393
REMARK  159  A    between atoms: _398  and  _400
REMARK  160  A    between atoms: _400  and  _401
REMARK  161  A    between atoms: _400  and  _403
REMARK  162  A    between atoms: _403  and  _404
REMARK  163  A    between atoms: _407  and  _409
REMARK  164  A    between atoms: _409  and  _410
REMARK  165  A    between atoms: _409  and  _412
REMARK  166  A    between atoms: _412  and  _413
REMARK  167  A    between atoms: _416  and  _418
REMARK  168  A    between atoms: _418  and  _419
REMARK  169  A    between atoms: _418  and  _421
REMARK  170  A    between atoms: _424  and  _426
REMARK  171  A    between atoms: _426  and  _427
REMARK  172  A    between atoms: _429  and  _431
REMARK  173  A    between atoms: _431  and  _432
REMARK  174  A    between atoms: _431  and  _434
REMARK  175  A    between atoms: _438  and  _439
REMARK  176  A    between atoms: _444  and  _446
REMARK  177  A    between atoms: _446  and  _447
REMARK  178  A    between atoms: _446  and  _449
REMARK  179  A    between atoms: _449  and  _450
REMARK  180  A    between atoms: _453  and  _455
REMARK  181  A    between atoms: _455  and  _456
REMARK  182  A    between atoms: _455  and  _458
REMARK  183  A    between atoms: _461  and  _463
REMARK  184  A    between atoms: _463  and  _464
REMARK  185  A    between atoms: _463  and  _466
REMARK  186  A    between atoms: _466  and  _467
REMARK  187  A    between atoms: _467  and  _468
REMARK  188  A    between atoms: _468  and  _469
REMARK  189  A    between atoms: _478  and  _480
REMARK  190  A    between atoms: _480  and  _481
REMARK  191  A    between atoms: _480  and  _483
REMARK  192  A    between atoms: _483  and  _484
REMARK  193  A    between atoms: _484  and  _485
REMARK  194  A    between atoms: _488  and  _490
REMARK  195  A    between atoms: _490  and  _491
REMARK  196  A    between atoms: _490  and  _493
REMARK  197  A    between atoms: _493  and  _494
REMARK  198  A    between atoms: _497  and  _499
REMARK  199  A    between atoms: _499  and  _500
REMARK  200  A    between atoms: _503  and  _505
REMARK  201  A    between atoms: _505  and  _506
REMARK  202  A    between atoms: _505  and  _508
REMARK  203  A    between atoms: _508  and  _509
REMARK  204  A    between atoms: _509  and  _510
REMARK  205  A    between atoms: _512  and  _514
REMARK  206  A    between atoms: _514  and  _515
REMARK  207  A    between atoms: _514  and  _517
REMARK  208  A    between atoms: _517  and  _518
REMARK  209  A    between atoms: _520  and  _522
REMARK  210  A    between atoms: _522  and  _523
REMARK  211  A    between atoms: _522  and  _525
REMARK  212  A    between atoms: _525  and  _526
REMARK  213  A    between atoms: _528  and  _530
REMARK  214  A    between atoms: _530  and  _531
REMARK  215  A    between atoms: _530  and  _533
REMARK  216  A    between atoms: _533  and  _534
REMARK  217  A    between atoms: _534  and  _535
REMARK  218  A    between atoms: _535  and  _536
REMARK  219  A    between atoms: _545  and  _547
REMARK  220  A    between atoms: _547  and  _548
REMARK  221  A    between atoms: _547  and  _550
REMARK  222  A    between atoms: _550  and  _551
REMARK  223  A    between atoms: _556  and  _558
REMARK  224  A    between atoms: _558  and  _559
REMARK  225  A    between atoms: _558  and  _561
REMARK  226  A    between atoms: _561  and  _562
REMARK                            x       y       z     vdW  Elec       q    Type
REMARK                         _______ _______ _______ _____ _____    ______ ____
ROOT
ATOM      1  O   HOH     1      19.806   4.195   2.908  0.00  0.00    +0.000 OA
ENDROOT
TORSDOF 0
REMARK  Name = ../refined-set-2016/3cow/3cow_pocket.pdb
REMARK  226 active torsions:
REMARK  status: ('A' for Active; 'I' for Inactive)
REMARK    1  A    between atoms: _1  and  _3
REMARK    2  A    between atoms: _3  and  _4
REMARK    3  A    between atoms: _3  and  _6
REMARK    4  A    between atoms: _10  and  _11
REMARK    5  A    between atoms: _16  and  _18
REMARK    6  A    between atoms: _18  and  _19
REMARK    7  A    between atoms: _18  and  _21
REMARK    8  A    between atoms: _21  and  _22
REMARK    9  A    between atoms: _25  and  _27
REMARK   10  A    between atoms: _27  and  _28
REMARK   11  A    between atoms: _27  and  _30
REMARK   12  A    between atoms: _30  and  _31
REMARK   13  A    between atoms: _31  and  _32
REMARK   14  A    between atoms: _34  and  _36
REMARK   15  A    between atoms: _36  and  _37
REMARK   16  A    between atoms: _39  and  _41
REMARK   17  A    between atoms: _41  and  _42
REMARK   18  A    between atoms: _45  and  _47
REMARK   19  A    between atoms: _47  and  _48
REMARK   20  A    between atoms: _47  and  _50
REMARK   21  A    between atoms: _50  and  _51
REMARK   22  A    between atoms: _54  and  _56
REMARK   23  A    between atoms: _56  and  _57
REMARK   24  A    between atoms: _56  and  _59
REMARK   25  A    between atoms: _59  and  _60
REMARK   26  A    between atoms: _65  and  _67
REMARK   27  A    between atoms: _67  and  _68
REMARK   28  A    between atoms: _67  and  _70
REMARK   29  A    between atoms: _70  and  _71
REMARK   30  A    between atoms: _71  and  _72
REMARK   31  A    between atoms: _75  and  _77
REMARK   32  A    between atoms: _77  and  _78
REMARK   33  A    between atoms: _80  and  _82
REMARK   34  A    between atoms: _82  and  _83
REMARK   35  A    between atoms: _82  and  _85
REMARK   36  A    between atoms: _85  and  _86
REMARK   37  A    between atoms: _91  and  _93
REMARK   38  A    between atoms: _93  and  _94
REMARK   39  A    between atoms: _93  and  _96
REMARK   40  A    between atoms: _96  and  _97
REMARK   41  A    between atoms: _100  and  _102
REMARK   42  A    between atoms: _102  and  _103
REMARK   43  A    between atoms: _106  and  _108
REMARK   44  A    between atoms: _108  and  _109
REMARK   45  A    between atoms: _108  and  _111
REMARK   46  A    between atoms: _111  and  _112
REMARK   47  A    between atoms: _115  and  _117
REMARK   48  A    between atoms: _117  and  _118
REMARK   49  A    between atoms: _117  and  _120
REMARK   50  A    between atoms: _123  and  _125
REMARK   51  A    between atoms: _125  and  _126
REMARK   52  A    between atoms: _125  and  _128
REMARK   53  A    between atoms: _128  and  _129
REMARK   54  A    between atoms: _131  and  _133
REMARK   55  A    between atoms: _133  and  _134
REMARK   56  A    between atoms: _133  and  _136
REMARK   57  A    between atoms: _136  and  _137
REMARK   58  A    between atoms: _140  and  _142
REMARK   59  A    between atoms: _142  and  _143
REMARK   60  A    between atoms: _142  and  _145
REMARK   61  A    between atoms: _145  and  _146
REMARK   62  A    between atoms: _152  and  _154
REMARK   63  A    between atoms: _154  and  _155
REMARK   64  A    between atoms: _154  and  _157
REMARK   65  A    between atoms: _160  and  _162
REMARK   66  A    between atoms: _162  and  _163
REMARK   67  A    between atoms: _162  and  _165
REMARK   68  A    between atoms: _165  and  _166
REMARK   69  A    between atoms: _171  and  _173
REMARK   70  A    between atoms: _173  and  _174
REMARK   71  A    between atoms: _173  and  _176
REMARK   72  A    between atoms: _176  and  _177
REMARK   73  A    between atoms: _177  and  _178
REMARK   74  A    between atoms: _183  and  _185
REMARK   75  A    between atoms: _185  and  _186
REMARK   76  A    between atoms: _185  and  _188
REMARK   77  A    between atoms: _188  and  _189
REMARK   78  A    between atoms: _195  and  _197
REMARK   79  A    between atoms: _197  and  _198
REMARK   80  A    between atoms: _197  and  _200
REMARK   81  A    between atoms: _200  and  _201
REMARK   82  A    between atoms: _206  and  _207
REMARK   83  A    between atoms: _209  and  _211
REMARK   84  A    between atoms: _211  and  _212
REMARK   85  A    between atoms: _211  and  _214
REMARK   86  A    between atoms: _214  and  _215
REMARK   87  A    between atoms: _220  and  _221
REMARK   88  A    between atoms: _223  and  _225
REMARK   89  A    between atoms: _225  and  _226
REMARK   90  A    between atoms: _225  and  _228
REMARK   91  A    between atoms: _228  and  _229
REMARK   92  A    between atoms: _234  and  _236
REMARK   93  A    between atoms: _236  and  _237
REMARK   94  A    between atoms: _236  and  _239
REMARK   95  A    between atoms: _239  and  _240
REMARK   96  A    between atoms: _246  and  _248
REMARK   97  A    between atoms: _248  and  _249
REMARK   98  A    between atoms: _251  and  _253
REMARK   99  A    between atoms: _253  and  _254
REMARK  100  A    between atoms: _253  and  _256
REMARK  101  A    between atoms: _259  and  _261
REMARK  102  A    between atoms: _261  and  _262
REMARK  103  A    between atoms: _261  and  _264
REMARK  104  A    between atoms: _264  and  _265
REMARK  105  A    between atoms: _268  and  _270
REMARK  106  A    between atoms: _270  and  _271
REMARK  107  A    between atoms: _270  and  _273
REMARK  108  A    between atoms: _273  and  _274
REMARK  109  A    between atoms: _277  and  _279
REMARK  110  A    between atoms: _279  and  _280
REMARK  111  A    between atoms: _279  and  _282
REMARK  112  A    between atoms: _285  and  _287
REMARK  113  A    between atoms: _287  and  _288
REMARK  114  A    between atoms: _287  and  _290
REMARK  115  A    between atoms: _293  and  _295
REMARK  116  A    between atoms: _295  and  _296
REMARK  117  A    between atoms: _295  and  _298
REMARK  118  A    between atoms: _298  and  _299
REMARK  119  A    between atoms: _302  and  _304
REMARK  120  A    between atoms: _304  and  _305
REMARK  121  A    between atoms: _304  and  _307
REMARK  122  A    between atoms: _307  and  _308
REMARK  123  A    between atoms: _311  and  _313
REMARK  124  A    between atoms: _313  and  _314
REMARK  125  A    between atoms: _313  and  _316
REMARK  126  A    between atoms: _316  and  _317
REMARK  127  A    between atoms: _323  and  _325
REMARK  128  A    between atoms: _325  and  _326
REMARK  129  A    between atoms: _325  and  _328
REMARK  130  A    between atoms: _328  and  _329
REMARK  131  A    between atoms: _335  and  _337
REMARK  132  A    between atoms: _337  and  _338
REMARK  133  A    between atoms: _340  and  _342
REMARK  134  A    between atoms: _342  and  _343
REMARK  135  A    between atoms: _342  and  _345
REMARK  136  A    between atoms: _345  and  _346
REMARK  137  A    between atoms: _346  and  _347
REMARK  138  A    between atoms: _350  and  _352
REMARK  139  A    between atoms: _352  and  _353
REMARK  140  A    between atoms: _352  and  _355
REMARK  141  A    between atoms: _355  and  _356
REMARK  142  A    between atoms: _356  and  _357
REMARK  143  A    between atoms: _357  and  _358
REMARK  144  A    between atoms: _358  and  _359
REMARK  145  A    between atoms: _363  and  _365
REMARK  146  A    between atoms: _365  and  _366
REMARK  147  A    between atoms: _365  and  _368
REMARK  148  A    between atoms: _368  and  _369
REMARK  149  A    between atoms: _372  and  _374
REMARK  150  A    between atoms: _374  and  _375
REMARK  151  A    between atoms: _374  and  _377
REMARK  152  A    between atoms: _377  and  _378
REMARK  153  A    between atoms: _383  and  _384
REMARK  154  A    between atoms: _386  and  _388
REMARK  155  A    between atoms: _388  and  _389
REMARK  156  A    between atoms: _388  and  _391
REMARK  157  A    between atoms: _391  and  _392
REMARK  158  A    between atoms: _392  and  _393
REMARK  159  A    between atoms: _398  and  _400
REMARK  160  A    between atoms: _400  and  _401
REMARK  161  A    between atoms: _400  and  _403
REMARK  162  A    between atoms: _403  and  _404
REMARK  163  A    between atoms: _407  and  _409
REMARK  164  A    between atoms: _409  and  _410
REMARK  165  A    between atoms: _409  and  _412
REMARK  166  A    between atoms: _412  and  _413
REMARK  167  A    between atoms: _416  and  _418
REMARK  168  A    between atoms: _418  and  _419
REMARK  169  A    between atoms: _418  and  _421
REMARK  170  A    between atoms: _424  and  _426
REMARK  171  A    between atoms: _426  and  _427
REMARK  172  A    between atoms: _429  and  _431
REMARK  173  A    between atoms: _431  and  _432
REMARK  174  A    between atoms: _431  and  _434
REMARK  175  A    between atoms: _438  and  _439
REMARK  176  A    between atoms: _444  and  _446
REMARK  177  A    between atoms: _446  and  _447
REMARK  178  A    between atoms: _446  and  _449
REMARK  179  A    between atoms: _449  and  _450
REMARK  180  A    between atoms: _453  and  _455
REMARK  181  A    between atoms: _455  and  _456
REMARK  182  A    between atoms: _455  and  _458
REMARK  183  A    between atoms: _461  and  _463
REMARK  184  A    between atoms: _463  and  _464
REMARK  185  A    between atoms: _463  and  _466
REMARK  186  A    between atoms: _466  and  _467
REMARK  187  A    between atoms: _467  and  _468
REMARK  188  A    between atoms: _468  and  _469
REMARK  189  A    between atoms: _478  and  _480
REMARK  190  A    between atoms: _480  and  _481
REMARK  191  A    between atoms: _480  and  _483
REMARK  192  A    between atoms: _483  and  _484
REMARK  193  A    between atoms: _484  and  _485
REMARK  194  A    between atoms: _488  and  _490
REMARK  195  A    between atoms: _490  and  _491
REMARK  196  A    between atoms: _490  and  _493
REMARK  197  A    between atoms: _493  and  _494
REMARK  198  A    between atoms: _497  and  _499
REMARK  199  A    between atoms: _499  and  _500
REMARK  200  A    between atoms: _503  and  _505
REMARK  201  A    between atoms: _505  and  _506
REMARK  202  A    between atoms: _505  and  _508
REMARK  203  A    between atoms: _508  and  _509
REMARK  204  A    between atoms: _509  and  _510
REMARK  205  A    between atoms: _512  and  _514
REMARK  206  A    between atoms: _514  and  _515
REMARK  207  A    between atoms: _514  and  _517
REMARK  208  A    between atoms: _517  and  _518
REMARK  209  A    between atoms: _520  and  _522
REMARK  210  A    between atoms: _522  and  _523
REMARK  211  A    between atoms: _522  and  _525
REMARK  212  A    between atoms: _525  and  _526
REMARK  213  A    between atoms: _528  and  _530
REMARK  214  A    between atoms: _530  and  _531
REMARK  215  A    between atoms: _530  and  _533
REMARK  216  A    between atoms: _533  and  _534
REMARK  217  A    between atoms: _534  and  _535
REMARK  218  A    between atoms: _535  and  _536
REMARK  219  A    between atoms: _545  and  _547
REMARK  220  A    between atoms: _547  and  _548
REMARK  221  A    between atoms: _547  and  _550
REMARK  222  A    between atoms: _550  and  _551
REMARK  223  A    between atoms: _556  and  _558
REMARK  224  A    between atoms: _558  and  _559
REMARK  225  A    between atoms: _558  and  _561
REMARK  226  A    between atoms: _561  and  _562
REMARK                            x       y       z     vdW  Elec       q    Type
REMARK                         _______ _______ _______ _____ _____    ______ ____
ROOT
ATOM      1  O   HOH     1      17.851   9.567   0.780  0.00  0.00    +0.000 OA
ENDROOT
TORSDOF 0
REMARK  Name = ../refined-set-2016/3cow/3cow_pocket.pdb
REMARK  226 active torsions:
REMARK  status: ('A' for Active; 'I' for Inactive)
REMARK    1  A    between atoms: _1  and  _3
REMARK    2  A    between atoms: _3  and  _4
REMARK    3  A    between atoms: _3  and  _6
REMARK    4  A    between atoms: _10  and  _11
REMARK    5  A    between atoms: _16  and  _18
REMARK    6  A    between atoms: _18  and  _19
REMARK    7  A    between atoms: _18  and  _21
REMARK    8  A    between atoms: _21  and  _22
REMARK    9  A    between atoms: _25  and  _27
REMARK   10  A    between atoms: _27  and  _28
REMARK   11  A    between atoms: _27  and  _30
REMARK   12  A    between atoms: _30  and  _31
REMARK   13  A    between atoms: _31  and  _32
REMARK   14  A    between atoms: _34  and  _36
REMARK   15  A    between atoms: _36  and  _37
REMARK   16  A    between atoms: _39  and  _41
REMARK   17  A    between atoms: _41  and  _42
REMARK   18  A    between atoms: _45  and  _47
REMARK   19  A    between atoms: _47  and  _48
REMARK   20  A    between atoms: _47  and  _50
REMARK   21  A    between atoms: _50  and  _51
REMARK   22  A    between atoms: _54  and  _56
REMARK   23  A    between atoms: _56  and  _57
REMARK   24  A    between atoms: _56  and  _59
REMARK   25  A    between atoms: _59  and  _60
REMARK   26  A    between atoms: _65  and  _67
REMARK   27  A    between atoms: _67  and  _68
REMARK   28  A    between atoms: _67  and  _70
REMARK   29  A    between atoms: _70  and  _71
REMARK   30  A    between atoms: _71  and  _72
REMARK   31  A    between atoms: _75  and  _77
REMARK   32  A    between atoms: _77  and  _78
REMARK   33  A    between atoms: _80  and  _82
REMARK   34  A    between atoms: _82  and  _83
REMARK   35  A    between atoms: _82  and  _85
REMARK   36  A    between atoms: _85  and  _86
REMARK   37  A    between atoms: _91  and  _93
REMARK   38  A    between atoms: _93  and  _94
REMARK   39  A    between atoms: _93  and  _96
REMARK   40  A    between atoms: _96  and  _97
REMARK   41  A    between atoms: _100  and  _102
REMARK   42  A    between atoms: _102  and  _103
REMARK   43  A    between atoms: _106  and  _108
REMARK   44  A    between atoms: _108  and  _109
REMARK   45  A    between atoms: _108  and  _111
REMARK   46  A    between atoms: _111  and  _112
REMARK   47  A    between atoms: _115  and  _117
REMARK   48  A    between atoms: _117  and  _118
REMARK   49  A    between atoms: _117  and  _120
REMARK   50  A    between atoms: _123  and  _125
REMARK   51  A    between atoms: _125  and  _126
REMARK   52  A    between atoms: _125  and  _128
REMARK   53  A    between atoms: _128  and  _129
REMARK   54  A    between atoms: _131  and  _133
REMARK   55  A    between atoms: _133  and  _134
REMARK   56  A    between atoms: _133  and  _136
REMARK   57  A    between atoms: _136  and  _137
REMARK   58  A    between atoms: _140  and  _142
REMARK   59  A    between atoms: _142  and  _143
REMARK   60  A    between atoms: _142  and  _145
REMARK   61  A    between atoms: _145  and  _146
REMARK   62  A    between atoms: _152  and  _154
REMARK   63  A    between atoms: _154  and  _155
REMARK   64  A    between atoms: _154  and  _157
REMARK   65  A    between atoms: _160  and  _162
REMARK   66  A    between atoms: _162  and  _163
REMARK   67  A    between atoms: _162  and  _165
REMARK   68  A    between atoms: _165  and  _166
REMARK   69  A    between atoms: _171  and  _173
REMARK   70  A    between atoms: _173  and  _174
REMARK   71  A    between atoms: _173  and  _176
REMARK   72  A    between atoms: _176  and  _177
REMARK   73  A    between atoms: _177  and  _178
REMARK   74  A    between atoms: _183  and  _185
REMARK   75  A    between atoms: _185  and  _186
REMARK   76  A    between atoms: _185  and  _188
REMARK   77  A    between atoms: _188  and  _189
REMARK   78  A    between atoms: _195  and  _197
REMARK   79  A    between atoms: _197  and  _198
REMARK   80  A    between atoms: _197  and  _200
REMARK   81  A    between atoms: _200  and  _201
REMARK   82  A    between atoms: _206  and  _207
REMARK   83  A    between atoms: _209  and  _211
REMARK   84  A    between atoms: _211  and  _212
REMARK   85  A    between atoms: _211  and  _214
REMARK   86  A    between atoms: _214  and  _215
REMARK   87  A    between atoms: _220  and  _221
REMARK   88  A    between atoms: _223  and  _225
REMARK   89  A    between atoms: _225  and  _226
REMARK   90  A    between atoms: _225  and  _228
REMARK   91  A    between atoms: _228  and  _229
REMARK   92  A    between atoms: _234  and  _236
REMARK   93  A    between atoms: _236  and  _237
REMARK   94  A    between atoms: _236  and  _239
REMARK   95  A    between atoms: _239  and  _240
REMARK   96  A    between atoms: _246  and  _248
REMARK   97  A    between atoms: _248  and  _249
REMARK   98  A    between atoms: _251  and  _253
REMARK   99  A    between atoms: _253  and  _254
REMARK  100  A    between atoms: _253  and  _256
REMARK  101  A    between atoms: _259  and  _261
REMARK  102  A    between atoms: _261  and  _262
REMARK  103  A    between atoms: _261  and  _264
REMARK  104  A    between atoms: _264  and  _265
REMARK  105  A    between atoms: _268  and  _270
REMARK  106  A    between atoms: _270  and  _271
REMARK  107  A    between atoms: _270  and  _273
REMARK  108  A    between atoms: _273  and  _274
REMARK  109  A    between atoms: _277  and  _279
REMARK  110  A    between atoms: _279  and  _280
REMARK  111  A    between atoms: _279  and  _282
REMARK  112  A    between atoms: _285  and  _287
REMARK  113  A    between atoms: _287  and  _288
REMARK  114  A    between atoms: _287  and  _290
REMARK  115  A    between atoms: _293  and  _295
REMARK  116  A    between atoms: _295  and  _296
REMARK  117  A    between atoms: _295  and  _298
REMARK  118  A    between atoms: _298  and  _299
REMARK  119  A    between atoms: _302  and  _304
REMARK  120  A    between atoms: _304  and  _305
REMARK  121  A    between atoms: _304  and  _307
REMARK  122  A    between atoms: _307  and  _308
REMARK  123  A    between atoms: _311  and  _313
REMARK  124  A    between atoms: _313  and  _314
REMARK  125  A    between atoms: _313  and  _316
REMARK  126  A    between atoms: _316  and  _317
REMARK  127  A    between atoms: _323  and  _325
REMARK  128  A    between atoms: _325  and  _326
REMARK  129  A    between atoms: _325  and  _328
REMARK  130  A    between atoms: _328  and  _329
REMARK  131  A    between atoms: _335  and  _337
REMARK  132  A    between atoms: _337  and  _338
REMARK  133  A    between atoms: _340  and  _342
REMARK  134  A    between atoms: _342  and  _343
REMARK  135  A    between atoms: _342  and  _345
REMARK  136  A    between atoms: _345  and  _346
REMARK  137  A    between atoms: _346  and  _347
REMARK  138  A    between atoms: _350  and  _352
REMARK  139  A    between atoms: _352  and  _353
REMARK  140  A    between atoms: _352  and  _355
REMARK  141  A    between atoms: _355  and  _356
REMARK  142  A    between atoms: _356  and  _357
REMARK  143  A    between atoms: _357  and  _358
REMARK  144  A    between atoms: _358  and  _359
REMARK  145  A    between atoms: _363  and  _365
REMARK  146  A    between atoms: _365  and  _366
REMARK  147  A    between atoms: _365  and  _368
REMARK  148  A    between atoms: _368  and  _369
REMARK  149  A    between atoms: _372  and  _374
REMARK  150  A    between atoms: _374  and  _375
REMARK  151  A    between atoms: _374  and  _377
REMARK  152  A    between atoms: _377  and  _378
REMARK  153  A    between atoms: _383  and  _384
REMARK  154  A    between atoms: _386  and  _388
REMARK  155  A    between atoms: _388  and  _389
REMARK  156  A    between atoms: _388  and  _391
REMARK  157  A    between atoms: _391  and  _392
REMARK  158  A    between atoms: _392  and  _393
REMARK  159  A    between atoms: _398  and  _400
REMARK  160  A    between atoms: _400  and  _401
REMARK  161  A    between atoms: _400  and  _403
REMARK  162  A    between atoms: _403  and  _404
REMARK  163  A    between atoms: _407  and  _409
REMARK  164  A    between atoms: _409  and  _410
REMARK  165  A    between atoms: _409  and  _412
REMARK  166  A    between atoms: _412  and  _413
REMARK  167  A    between atoms: _416  and  _418
REMARK  168  A    between atoms: _418  and  _419
REMARK  169  A    between atoms: _418  and  _421
REMARK  170  A    between atoms: _424  and  _426
REMARK  171  A    between atoms: _426  and  _427
REMARK  172  A    between atoms: _429  and  _431
REMARK  173  A    between atoms: _431  and  _432
REMARK  174  A    between atoms: _431  and  _434
REMARK  175  A    between atoms: _438  and  _439
REMARK  176  A    between atoms: _444  and  _446
REMARK  177  A    between atoms: _446  and  _447
REMARK  178  A    between atoms: _446  and  _449
REMARK  179  A    between atoms: _449  and  _450
REMARK  180  A    between atoms: _453  and  _455
REMARK  181  A    between atoms: _455  and  _456
REMARK  182  A    between atoms: _455  and  _458
REMARK  183  A    between atoms: _461  and  _463
REMARK  184  A    between atoms: _463  and  _464
REMARK  185  A    between atoms: _463  and  _466
REMARK  186  A    between atoms: _466  and  _467
REMARK  187  A    between atoms: _467  and  _468
REMARK  188  A    between atoms: _468  and  _469
REMARK  189  A    between atoms: _478  and  _480
REMARK  190  A    between atoms: _480  and  _481
REMARK  191  A    between atoms: _480  and  _483
REMARK  192  A    between atoms: _483  and  _484
REMARK  193  A    between atoms: _484  and  _485
REMARK  194  A    between atoms: _488  and  _490
REMARK  195  A    between atoms: _490  and  _491
REMARK  196  A    between atoms: _490  and  _493
REMARK  197  A    between atoms: _493  and  _494
REMARK  198  A    between atoms: _497  and  _499
REMARK  199  A    between atoms: _499  and  _500
REMARK  200  A    between atoms: _503  and  _505
REMARK  201  A    between atoms: _505  and  _506
REMARK  202  A    between atoms: _505  and  _508
REMARK  203  A    between atoms: _508  and  _509
REMARK  204  A    between atoms: _509  and  _510
REMARK  205  A    between atoms: _512  and  _514
REMARK  206  A    between atoms: _514  and  _515
REMARK  207  A    between atoms: _514  and  _517
REMARK  208  A    between atoms: _517  and  _518
REMARK  209  A    between atoms: _520  and  _522
REMARK  210  A    between atoms: _522  and  _523
REMARK  211  A    between atoms: _522  and  _525
REMARK  212  A    between atoms: _525  and  _526
REMARK  213  A    between atoms: _528  and  _530
REMARK  214  A    between atoms: _530  and  _531
REMARK  215  A    between atoms: _530  and  _533
REMARK  216  A    between atoms: _533  and  _534
REMARK  217  A    between atoms: _534  and  _535
REMARK  218  A    between atoms: _535  and  _536
REMARK  219  A    between atoms: _545  and  _547
REMARK  220  A    between atoms: _547  and  _548
REMARK  221  A    between atoms: _547  and  _550
REMARK  222  A    between atoms: _550  and  _551
REMARK  223  A    between atoms: _556  and  _558
REMARK  224  A    between atoms: _558  and  _559
REMARK  225  A    between atoms: _558  and  _561
REMARK  226  A    between atoms: _561  and  _562
REMARK                            x       y       z     vdW  Elec       q    Type
REMARK                         _______ _______ _______ _____ _____    ______ ____
ROOT
ATOM      1  O   HOH     1      18.696  12.945  -0.379  0.00  0.00    +0.000 OA
ENDROOT
TORSDOF 0
REMARK  Name = ../refined-set-2016/3cow/3cow_pocket.pdb
REMARK  226 active torsions:
REMARK  status: ('A' for Active; 'I' for Inactive)
REMARK    1  A    between atoms: _1  and  _3
REMARK    2  A    between atoms: _3  and  _4
REMARK    3  A    between atoms: _3  and  _6
REMARK    4  A    between atoms: _10  and  _11
REMARK    5  A    between atoms: _16  and  _18
REMARK    6  A    between atoms: _18  and  _19
REMARK    7  A    between atoms: _18  and  _21
REMARK    8  A    between atoms: _21  and  _22
REMARK    9  A    between atoms: _25  and  _27
REMARK   10  A    between atoms: _27  and  _28
REMARK   11  A    between atoms: _27  and  _30
REMARK   12  A    between atoms: _30  and  _31
REMARK   13  A    between atoms: _31  and  _32
REMARK   14  A    between atoms: _34  and  _36
REMARK   15  A    between atoms: _36  and  _37
REMARK   16  A    between atoms: _39  and  _41
REMARK   17  A    between atoms: _41  and  _42
REMARK   18  A    between atoms: _45  and  _47
REMARK   19  A    between atoms: _47  and  _48
REMARK   20  A    between atoms: _47  and  _50
REMARK   21  A    between atoms: _50  and  _51
REMARK   22  A    between atoms: _54  and  _56
REMARK   23  A    between atoms: _56  and  _57
REMARK   24  A    between atoms: _56  and  _59
REMARK   25  A    between atoms: _59  and  _60
REMARK   26  A    between atoms: _65  and  _67
REMARK   27  A    between atoms: _67  and  _68
REMARK   28  A    between atoms: _67  and  _70
REMARK   29  A    between atoms: _70  and  _71
REMARK   30  A    between atoms: _71  and  _72
REMARK   31  A    between atoms: _75  and  _77
REMARK   32  A    between atoms: _77  and  _78
REMARK   33  A    between atoms: _80  and  _82
REMARK   34  A    between atoms: _82  and  _83
REMARK   35  A    between atoms: _82  and  _85
REMARK   36  A    between atoms: _85  and  _86
REMARK   37  A    between atoms: _91  and  _93
REMARK   38  A    between atoms: _93  and  _94
REMARK   39  A    between atoms: _93  and  _96
REMARK   40  A    between atoms: _96  and  _97
REMARK   41  A    between atoms: _100  and  _102
REMARK   42  A    between atoms: _102  and  _103
REMARK   43  A    between atoms: _106  and  _108
REMARK   44  A    between atoms: _108  and  _109
REMARK   45  A    between atoms: _108  and  _111
REMARK   46  A    between atoms: _111  and  _112
REMARK   47  A    between atoms: _115  and  _117
REMARK   48  A    between atoms: _117  and  _118
REMARK   49  A    between atoms: _117  and  _120
REMARK   50  A    between atoms: _123  and  _125
REMARK   51  A    between atoms: _125  and  _126
REMARK   52  A    between atoms: _125  and  _128
REMARK   53  A    between atoms: _128  and  _129
REMARK   54  A    between atoms: _131  and  _133
REMARK   55  A    between atoms: _133  and  _134
REMARK   56  A    between atoms: _133  and  _136
REMARK   57  A    between atoms: _136  and  _137
REMARK   58  A    between atoms: _140  and  _142
REMARK   59  A    between atoms: _142  and  _143
REMARK   60  A    between atoms: _142  and  _145
REMARK   61  A    between atoms: _145  and  _146
REMARK   62  A    between atoms: _152  and  _154
REMARK   63  A    between atoms: _154  and  _155
REMARK   64  A    between atoms: _154  and  _157
REMARK   65  A    between atoms: _160  and  _162
REMARK   66  A    between atoms: _162  and  _163
REMARK   67  A    between atoms: _162  and  _165
REMARK   68  A    between atoms: _165  and  _166
REMARK   69  A    between atoms: _171  and  _173
REMARK   70  A    between atoms: _173  and  _174
REMARK   71  A    between atoms: _173  and  _176
REMARK   72  A    between atoms: _176  and  _177
REMARK   73  A    between atoms: _177  and  _178
REMARK   74  A    between atoms: _183  and  _185
REMARK   75  A    between atoms: _185  and  _186
REMARK   76  A    between atoms: _185  and  _188
REMARK   77  A    between atoms: _188  and  _189
REMARK   78  A    between atoms: _195  and  _197
REMARK   79  A    between atoms: _197  and  _198
REMARK   80  A    between atoms: _197  and  _200
REMARK   81  A    between atoms: _200  and  _201
REMARK   82  A    between atoms: _206  and  _207
REMARK   83  A    between atoms: _209  and  _211
REMARK   84  A    between atoms: _211  and  _212
REMARK   85  A    between atoms: _211  and  _214
REMARK   86  A    between atoms: _214  and  _215
REMARK   87  A    between atoms: _220  and  _221
REMARK   88  A    between atoms: _223  and  _225
REMARK   89  A    between atoms: _225  and  _226
REMARK   90  A    between atoms: _225  and  _228
REMARK   91  A    between atoms: _228  and  _229
REMARK   92  A    between atoms: _234  and  _236
REMARK   93  A    between atoms: _236  and  _237
REMARK   94  A    between atoms: _236  and  _239
REMARK   95  A    between atoms: _239  and  _240
REMARK   96  A    between atoms: _246  and  _248
REMARK   97  A    between atoms: _248  and  _249
REMARK   98  A    between atoms: _251  and  _253
REMARK   99  A    between atoms: _253  and  _254
REMARK  100  A    between atoms: _253  and  _256
REMARK  101  A    between atoms: _259  and  _261
REMARK  102  A    between atoms: _261  and  _262
REMARK  103  A    between atoms: _261  and  _264
REMARK  104  A    between atoms: _264  and  _265
REMARK  105  A    between atoms: _268  and  _270
REMARK  106  A    between atoms: _270  and  _271
REMARK  107  A    between atoms: _270  and  _273
REMARK  108  A    between atoms: _273  and  _274
REMARK  109  A    between atoms: _277  and  _279
REMARK  110  A    between atoms: _279  and  _280
REMARK  111  A    between atoms: _279  and  _282
REMARK  112  A    between atoms: _285  and  _287
REMARK  113  A    between atoms: _287  and  _288
REMARK  114  A    between atoms: _287  and  _290
REMARK  115  A    between atoms: _293  and  _295
REMARK  116  A    between atoms: _295  and  _296
REMARK  117  A    between atoms: _295  and  _298
REMARK  118  A    between atoms: _298  and  _299
REMARK  119  A    between atoms: _302  and  _304
REMARK  120  A    between atoms: _304  and  _305
REMARK  121  A    between atoms: _304  and  _307
REMARK  122  A    between atoms: _307  and  _308
REMARK  123  A    between atoms: _311  and  _313
REMARK  124  A    between atoms: _313  and  _314
REMARK  125  A    between atoms: _313  and  _316
REMARK  126  A    between atoms: _316  and  _317
REMARK  127  A    between atoms: _323  and  _325
REMARK  128  A    between atoms: _325  and  _326
REMARK  129  A    between atoms: _325  and  _328
REMARK  130  A    between atoms: _328  and  _329
REMARK  131  A    between atoms: _335  and  _337
REMARK  132  A    between atoms: _337  and  _338
REMARK  133  A    between atoms: _340  and  _342
REMARK  134  A    between atoms: _342  and  _343
REMARK  135  A    between atoms: _342  and  _345
REMARK  136  A    between atoms: _345  and  _346
REMARK  137  A    between atoms: _346  and  _347
REMARK  138  A    between atoms: _350  and  _352
REMARK  139  A    between atoms: _352  and  _353
REMARK  140  A    between atoms: _352  and  _355
REMARK  141  A    between atoms: _355  and  _356
REMARK  142  A    between atoms: _356  and  _357
REMARK  143  A    between atoms: _357  and  _358
REMARK  144  A    between atoms: _358  and  _359
REMARK  145  A    between atoms: _363  and  _365
REMARK  146  A    between atoms: _365  and  _366
REMARK  147  A    between atoms: _365  and  _368
REMARK  148  A    between atoms: _368  and  _369
REMARK  149  A    between atoms: _372  and  _374
REMARK  150  A    between atoms: _374  and  _375
REMARK  151  A    between atoms: _374  and  _377
REMARK  152  A    between atoms: _377  and  _378
REMARK  153  A    between atoms: _383  and  _384
REMARK  154  A    between atoms: _386  and  _388
REMARK  155  A    between atoms: _388  and  _389
REMARK  156  A    between atoms: _388  and  _391
REMARK  157  A    between atoms: _391  and  _392
REMARK  158  A    between atoms: _392  and  _393
REMARK  159  A    between atoms: _398  and  _400
REMARK  160  A    between atoms: _400  and  _401
REMARK  161  A    between atoms: _400  and  _403
REMARK  162  A    between atoms: _403  and  _404
REMARK  163  A    between atoms: _407  and  _409
REMARK  164  A    between atoms: _409  and  _410
REMARK  165  A    between atoms: _409  and  _412
REMARK  166  A    between atoms: _412  and  _413
REMARK  167  A    between atoms: _416  and  _418
REMARK  168  A    between atoms: _418  and  _419
REMARK  169  A    between atoms: _418  and  _421
REMARK  170  A    between atoms: _424  and  _426
REMARK  171  A    between atoms: _426  and  _427
REMARK  172  A    between atoms: _429  and  _431
REMARK  173  A    between atoms: _431  and  _432
REMARK  174  A    between atoms: _431  and  _434
REMARK  175  A    between atoms: _438  and  _439
REMARK  176  A    between atoms: _444  and  _446
REMARK  177  A    between atoms: _446  and  _447
REMARK  178  A    between atoms: _446  and  _449
REMARK  179  A    between atoms: _449  and  _450
REMARK  180  A    between atoms: _453  and  _455
REMARK  181  A    between atoms: _455  and  _456
REMARK  182  A    between atoms: _455  and  _458
REMARK  183  A    between atoms: _461  and  _463
REMARK  184  A    between atoms: _463  and  _464
REMARK  185  A    between atoms: _463  and  _466
REMARK  186  A    between atoms: _466  and  _467
REMARK  187  A    between atoms: _467  and  _468
REMARK  188  A    between atoms: _468  and  _469
REMARK  189  A    between atoms: _478  and  _480
REMARK  190  A    between atoms: _480  and  _481
REMARK  191  A    between atoms: _480  and  _483
REMARK  192  A    between atoms: _483  and  _484
REMARK  193  A    between atoms: _484  and  _485
REMARK  194  A    between atoms: _488  and  _490
REMARK  195  A    between atoms: _490  and  _491
REMARK  196  A    between atoms: _490  and  _493
REMARK  197  A    between atoms: _493  and  _494
REMARK  198  A    between atoms: _497  and  _499
REMARK  199  A    between atoms: _499  and  _500
REMARK  200  A    between atoms: _503  and  _505
REMARK  201  A    between atoms: _505  and  _506
REMARK  202  A    between atoms: _505  and  _508
REMARK  203  A    between atoms: _508  and  _509
REMARK  204  A    between atoms: _509  and  _510
REMARK  205  A    between atoms: _512  and  _514
REMARK  206  A    between atoms: _514  and  _515
REMARK  207  A    between atoms: _514  and  _517
REMARK  208  A    between atoms: _517  and  _518
REMARK  209  A    between atoms: _520  and  _522
REMARK  210  A    between atoms: _522  and  _523
REMARK  211  A    between atoms: _522  and  _525
REMARK  212  A    between atoms: _525  and  _526
REMARK  213  A    between atoms: _528  and  _530
REMARK  214  A    between atoms: _530  and  _531
REMARK  215  A    between atoms: _530  and  _533
REMARK  216  A    between atoms: _533  and  _534
REMARK  217  A    between atoms: _534  and  _535
REMARK  218  A    between atoms: _535  and  _536
REMARK  219  A    between atoms: _545  and  _547
REMARK  220  A    between atoms: _547  and  _548
REMARK  221  A    between atoms: _547  and  _550
REMARK  222  A    between atoms: _550  and  _551
REMARK  223  A    between atoms: _556  and  _558
REMARK  224  A    between atoms: _558  and  _559
REMARK  225  A    between atoms: _558  and  _561
REMARK  226  A    between atoms: _561  and  _562
REMARK                            x       y       z     vdW  Elec       q    Type
REMARK                         _______ _______ _______ _____ _____    ______ ____
ROOT
ATOM      1  O   HOH     1      18.959   4.924   5.491  0.00  0.00    +0.000 OA
ENDROOT
TORSDOF 0
REMARK  Name = ../refined-set-2016/3cow/3cow_pocket.pdb
REMARK  226 active torsions:
REMARK  status: ('A' for Active; 'I' for Inactive)
REMARK    1  A    between atoms: _1  and  _3
REMARK    2  A    between atoms: _3  and  _4
REMARK    3  A    between atoms: _3  and  _6
REMARK    4  A    between atoms: _10  and  _11
REMARK    5  A    between atoms: _16  and  _18
REMARK    6  A    between atoms: _18  and  _19
REMARK    7  A    between atoms: _18  and  _21
REMARK    8  A    between atoms: _21  and  _22
REMARK    9  A    between atoms: _25  and  _27
REMARK   10  A    between atoms: _27  and  _28
REMARK   11  A    between atoms: _27  and  _30
REMARK   12  A    between atoms: _30  and  _31
REMARK   13  A    between atoms: _31  and  _32
REMARK   14  A    between atoms: _34  and  _36
REMARK   15  A    between atoms: _36  and  _37
REMARK   16  A    between atoms: _39  and  _41
REMARK   17  A    between atoms: _41  and  _42
REMARK   18  A    between atoms: _45  and  _47
REMARK   19  A    between atoms: _47  and  _48
REMARK   20  A    between atoms: _47  and  _50
REMARK   21  A    between atoms: _50  and  _51
REMARK   22  A    between atoms: _54  and  _56
REMARK   23  A    between atoms: _56  and  _57
REMARK   24  A    between atoms: _56  and  _59
REMARK   25  A    between atoms: _59  and  _60
REMARK   26  A    between atoms: _65  and  _67
REMARK   27  A    between atoms: _67  and  _68
REMARK   28  A    between atoms: _67  and  _70
REMARK   29  A    between atoms: _70  and  _71
REMARK   30  A    between atoms: _71  and  _72
REMARK   31  A    between atoms: _75  and  _77
REMARK   32  A    between atoms: _77  and  _78
REMARK   33  A    between atoms: _80  and  _82
REMARK   34  A    between atoms: _82  and  _83
REMARK   35  A    between atoms: _82  and  _85
REMARK   36  A    between atoms: _85  and  _86
REMARK   37  A    between atoms: _91  and  _93
REMARK   38  A    between atoms: _93  and  _94
REMARK   39  A    between atoms: _93  and  _96
REMARK   40  A    between atoms: _96  and  _97
REMARK   41  A    between atoms: _100  and  _102
REMARK   42  A    between atoms: _102  and  _103
REMARK   43  A    between atoms: _106  and  _108
REMARK   44  A    between atoms: _108  and  _109
REMARK   45  A    between atoms: _108  and  _111
REMARK   46  A    between atoms: _111  and  _112
REMARK   47  A    between atoms: _115  and  _117
REMARK   48  A    between atoms: _117  and  _118
REMARK   49  A    between atoms: _117  and  _120
REMARK   50  A    between atoms: _123  and  _125
REMARK   51  A    between atoms: _125  and  _126
REMARK   52  A    between atoms: _125  and  _128
REMARK   53  A    between atoms: _128  and  _129
REMARK   54  A    between atoms: _131  and  _133
REMARK   55  A    between atoms: _133  and  _134
REMARK   56  A    between atoms: _133  and  _136
REMARK   57  A    between atoms: _136  and  _137
REMARK   58  A    between atoms: _140  and  _142
REMARK   59  A    between atoms: _142  and  _143
REMARK   60  A    between atoms: _142  and  _145
REMARK   61  A    between atoms: _145  and  _146
REMARK   62  A    between atoms: _152  and  _154
REMARK   63  A    between atoms: _154  and  _155
REMARK   64  A    between atoms: _154  and  _157
REMARK   65  A    between atoms: _160  and  _162
REMARK   66  A    between atoms: _162  and  _163
REMARK   67  A    between atoms: _162  and  _165
REMARK   68  A    between atoms: _165  and  _166
REMARK   69  A    between atoms: _171  and  _173
REMARK   70  A    between atoms: _173  and  _174
REMARK   71  A    between atoms: _173  and  _176
REMARK   72  A    between atoms: _176  and  _177
REMARK   73  A    between atoms: _177  and  _178
REMARK   74  A    between atoms: _183  and  _185
REMARK   75  A    between atoms: _185  and  _186
REMARK   76  A    between atoms: _185  and  _188
REMARK   77  A    between atoms: _188  and  _189
REMARK   78  A    between atoms: _195  and  _197
REMARK   79  A    between atoms: _197  and  _198
REMARK   80  A    between atoms: _197  and  _200
REMARK   81  A    between atoms: _200  and  _201
REMARK   82  A    between atoms: _206  and  _207
REMARK   83  A    between atoms: _209  and  _211
REMARK   84  A    between atoms: _211  and  _212
REMARK   85  A    between atoms: _211  and  _214
REMARK   86  A    between atoms: _214  and  _215
REMARK   87  A    between atoms: _220  and  _221
REMARK   88  A    between atoms: _223  and  _225
REMARK   89  A    between atoms: _225  and  _226
REMARK   90  A    between atoms: _225  and  _228
REMARK   91  A    between atoms: _228  and  _229
REMARK   92  A    between atoms: _234  and  _236
REMARK   93  A    between atoms: _236  and  _237
REMARK   94  A    between atoms: _236  and  _239
REMARK   95  A    between atoms: _239  and  _240
REMARK   96  A    between atoms: _246  and  _248
REMARK   97  A    between atoms: _248  and  _249
REMARK   98  A    between atoms: _251  and  _253
REMARK   99  A    between atoms: _253  and  _254
REMARK  100  A    between atoms: _253  and  _256
REMARK  101  A    between atoms: _259  and  _261
REMARK  102  A    between atoms: _261  and  _262
REMARK  103  A    between atoms: _261  and  _264
REMARK  104  A    between atoms: _264  and  _265
REMARK  105  A    between atoms: _268  and  _270
REMARK  106  A    between atoms: _270  and  _271
REMARK  107  A    between atoms: _270  and  _273
REMARK  108  A    between atoms: _273  and  _274
REMARK  109  A    between atoms: _277  and  _279
REMARK  110  A    between atoms: _279  and  _280
REMARK  111  A    between atoms: _279  and  _282
REMARK  112  A    between atoms: _285  and  _287
REMARK  113  A    between atoms: _287  and  _288
REMARK  114  A    between atoms: _287  and  _290
REMARK  115  A    between atoms: _293  and  _295
REMARK  116  A    between atoms: _295  and  _296
REMARK  117  A    between atoms: _295  and  _298
REMARK  118  A    between atoms: _298  and  _299
REMARK  119  A    between atoms: _302  and  _304
REMARK  120  A    between atoms: _304  and  _305
REMARK  121  A    between atoms: _304  and  _307
REMARK  122  A    between atoms: _307  and  _308
REMARK  123  A    between atoms: _311  and  _313
REMARK  124  A    between atoms: _313  and  _314
REMARK  125  A    between atoms: _313  and  _316
REMARK  126  A    between atoms: _316  and  _317
REMARK  127  A    between atoms: _323  and  _325
REMARK  128  A    between atoms: _325  and  _326
REMARK  129  A    between atoms: _325  and  _328
REMARK  130  A    between atoms: _328  and  _329
REMARK  131  A    between atoms: _335  and  _337
REMARK  132  A    between atoms: _337  and  _338
REMARK  133  A    between atoms: _340  and  _342
REMARK  134  A    between atoms: _342  and  _343
REMARK  135  A    between atoms: _342  and  _345
REMARK  136  A    between atoms: _345  and  _346
REMARK  137  A    between atoms: _346  and  _347
REMARK  138  A    between atoms: _350  and  _352
REMARK  139  A    between atoms: _352  and  _353
REMARK  140  A    between atoms: _352  and  _355
REMARK  141  A    between atoms: _355  and  _356
REMARK  142  A    between atoms: _356  and  _357
REMARK  143  A    between atoms: _357  and  _358
REMARK  144  A    between atoms: _358  and  _359
REMARK  145  A    between atoms: _363  and  _365
REMARK  146  A    between atoms: _365  and  _366
REMARK  147  A    between atoms: _365  and  _368
REMARK  148  A    between atoms: _368  and  _369
REMARK  149  A    between atoms: _372  and  _374
REMARK  150  A    between atoms: _374  and  _375
REMARK  151  A    between atoms: _374  and  _377
REMARK  152  A    between atoms: _377  and  _378
REMARK  153  A    between atoms: _383  and  _384
REMARK  154  A    between atoms: _386  and  _388
REMARK  155  A    between atoms: _388  and  _389
REMARK  156  A    between atoms: _388  and  _391
REMARK  157  A    between atoms: _391  and  _392
REMARK  158  A    between atoms: _392  and  _393
REMARK  159  A    between atoms: _398  and  _400
REMARK  160  A    between atoms: _400  and  _401
REMARK  161  A    between atoms: _400  and  _403
REMARK  162  A    between atoms: _403  and  _404
REMARK  163  A    between atoms: _407  and  _409
REMARK  164  A    between atoms: _409  and  _410
REMARK  165  A    between atoms: _409  and  _412
REMARK  166  A    between atoms: _412  and  _413
REMARK  167  A    between atoms: _416  and  _418
REMARK  168  A    between atoms: _418  and  _419
REMARK  169  A    between atoms: _418  and  _421
REMARK  170  A    between atoms: _424  and  _426
REMARK  171  A    between atoms: _426  and  _427
REMARK  172  A    between atoms: _429  and  _431
REMARK  173  A    between atoms: _431  and  _432
REMARK  174  A    between atoms: _431  and  _434
REMARK  175  A    between atoms: _438  and  _439
REMARK  176  A    between atoms: _444  and  _446
REMARK  177  A    between atoms: _446  and  _447
REMARK  178  A    between atoms: _446  and  _449
REMARK  179  A    between atoms: _449  and  _450
REMARK  180  A    between atoms: _453  and  _455
REMARK  181  A    between atoms: _455  and  _456
REMARK  182  A    between atoms: _455  and  _458
REMARK  183  A    between atoms: _461  and  _463
REMARK  184  A    between atoms: _463  and  _464
REMARK  185  A    between atoms: _463  and  _466
REMARK  186  A    between atoms: _466  and  _467
REMARK  187  A    between atoms: _467  and  _468
REMARK  188  A    between atoms: _468  and  _469
REMARK  189  A    between atoms: _478  and  _480
REMARK  190  A    between atoms: _480  and  _481
REMARK  191  A    between atoms: _480  and  _483
REMARK  192  A    between atoms: _483  and  _484
REMARK  193  A    between atoms: _484  and  _485
REMARK  194  A    between atoms: _488  and  _490
REMARK  195  A    between atoms: _490  and  _491
REMARK  196  A    between atoms: _490  and  _493
REMARK  197  A    between atoms: _493  and  _494
REMARK  198  A    between atoms: _497  and  _499
REMARK  199  A    between atoms: _499  and  _500
REMARK  200  A    between atoms: _503  and  _505
REMARK  201  A    between atoms: _505  and  _506
REMARK  202  A    between atoms: _505  and  _508
REMARK  203  A    between atoms: _508  and  _509
REMARK  204  A    between atoms: _509  and  _510
REMARK  205  A    between atoms: _512  and  _514
REMARK  206  A    between atoms: _514  and  _515
REMARK  207  A    between atoms: _514  and  _517
REMARK  208  A    between atoms: _517  and  _518
REMARK  209  A    between atoms: _520  and  _522
REMARK  210  A    between atoms: _522  and  _523
REMARK  211  A    between atoms: _522  and  _525
REMARK  212  A    between atoms: _525  and  _526
REMARK  213  A    between atoms: _528  and  _530
REMARK  214  A    between atoms: _530  and  _531
REMARK  215  A    between atoms: _530  and  _533
REMARK  216  A    between atoms: _533  and  _534
REMARK  217  A    between atoms: _534  and  _535
REMARK  218  A    between atoms: _535  and  _536
REMARK  219  A    between atoms: _545  and  _547
REMARK  220  A    between atoms: _547  and  _548
REMARK  221  A    between atoms: _547  and  _550
REMARK  222  A    between atoms: _550  and  _551
REMARK  223  A    between atoms: _556  and  _558
REMARK  224  A    between atoms: _558  and  _559
REMARK  225  A    between atoms: _558  and  _561
REMARK  226  A    between atoms: _561  and  _562
REMARK                            x       y       z     vdW  Elec       q    Type
REMARK                         _______ _______ _______ _____ _____    ______ ____
ROOT
ATOM      1  O   HOH     1      18.110  14.794   2.395  0.00  0.00    +0.000 OA
ENDROOT
TORSDOF 0
REMARK  Name = ../refined-set-2016/3cow/3cow_pocket.pdb
REMARK  226 active torsions:
REMARK  status: ('A' for Active; 'I' for Inactive)
REMARK    1  A    between atoms: _1  and  _3
REMARK    2  A    between atoms: _3  and  _4
REMARK    3  A    between atoms: _3  and  _6
REMARK    4  A    between atoms: _10  and  _11
REMARK    5  A    between atoms: _16  and  _18
REMARK    6  A    between atoms: _18  and  _19
REMARK    7  A    between atoms: _18  and  _21
REMARK    8  A    between atoms: _21  and  _22
REMARK    9  A    between atoms: _25  and  _27
REMARK   10  A    between atoms: _27  and  _28
REMARK   11  A    between atoms: _27  and  _30
REMARK   12  A    between atoms: _30  and  _31
REMARK   13  A    between atoms: _31  and  _32
REMARK   14  A    between atoms: _34  and  _36
REMARK   15  A    between atoms: _36  and  _37
REMARK   16  A    between atoms: _39  and  _41
REMARK   17  A    between atoms: _41  and  _42
REMARK   18  A    between atoms: _45  and  _47
REMARK   19  A    between atoms: _47  and  _48
REMARK   20  A    between atoms: _47  and  _50
REMARK   21  A    between atoms: _50  and  _51
REMARK   22  A    between atoms: _54  and  _56
REMARK   23  A    between atoms: _56  and  _57
REMARK   24  A    between atoms: _56  and  _59
REMARK   25  A    between atoms: _59  and  _60
REMARK   26  A    between atoms: _65  and  _67
REMARK   27  A    between atoms: _67  and  _68
REMARK   28  A    between atoms: _67  and  _70
REMARK   29  A    between atoms: _70  and  _71
REMARK   30  A    between atoms: _71  and  _72
REMARK   31  A    between atoms: _75  and  _77
REMARK   32  A    between atoms: _77  and  _78
REMARK   33  A    between atoms: _80  and  _82
REMARK   34  A    between atoms: _82  and  _83
REMARK   35  A    between atoms: _82  and  _85
REMARK   36  A    between atoms: _85  and  _86
REMARK   37  A    between atoms: _91  and  _93
REMARK   38  A    between atoms: _93  and  _94
REMARK   39  A    between atoms: _93  and  _96
REMARK   40  A    between atoms: _96  and  _97
REMARK   41  A    between atoms: _100  and  _102
REMARK   42  A    between atoms: _102  and  _103
REMARK   43  A    between atoms: _106  and  _108
REMARK   44  A    between atoms: _108  and  _109
REMARK   45  A    between atoms: _108  and  _111
REMARK   46  A    between atoms: _111  and  _112
REMARK   47  A    between atoms: _115  and  _117
REMARK   48  A    between atoms: _117  and  _118
REMARK   49  A    between atoms: _117  and  _120
REMARK   50  A    between atoms: _123  and  _125
REMARK   51  A    between atoms: _125  and  _126
REMARK   52  A    between atoms: _125  and  _128
REMARK   53  A    between atoms: _128  and  _129
REMARK   54  A    between atoms: _131  and  _133
REMARK   55  A    between atoms: _133  and  _134
REMARK   56  A    between atoms: _133  and  _136
REMARK   57  A    between atoms: _136  and  _137
REMARK   58  A    between atoms: _140  and  _142
REMARK   59  A    between atoms: _142  and  _143
REMARK   60  A    between atoms: _142  and  _145
REMARK   61  A    between atoms: _145  and  _146
REMARK   62  A    between atoms: _152  and  _154
REMARK   63  A    between atoms: _154  and  _155
REMARK   64  A    between atoms: _154  and  _157
REMARK   65  A    between atoms: _160  and  _162
REMARK   66  A    between atoms: _162  and  _163
REMARK   67  A    between atoms: _162  and  _165
REMARK   68  A    between atoms: _165  and  _166
REMARK   69  A    between atoms: _171  and  _173
REMARK   70  A    between atoms: _173  and  _174
REMARK   71  A    between atoms: _173  and  _176
REMARK   72  A    between atoms: _176  and  _177
REMARK   73  A    between atoms: _177  and  _178
REMARK   74  A    between atoms: _183  and  _185
REMARK   75  A    between atoms: _185  and  _186
REMARK   76  A    between atoms: _185  and  _188
REMARK   77  A    between atoms: _188  and  _189
REMARK   78  A    between atoms: _195  and  _197
REMARK   79  A    between atoms: _197  and  _198
REMARK   80  A    between atoms: _197  and  _200
REMARK   81  A    between atoms: _200  and  _201
REMARK   82  A    between atoms: _206  and  _207
REMARK   83  A    between atoms: _209  and  _211
REMARK   84  A    between atoms: _211  and  _212
REMARK   85  A    between atoms: _211  and  _214
REMARK   86  A    between atoms: _214  and  _215
REMARK   87  A    between atoms: _220  and  _221
REMARK   88  A    between atoms: _223  and  _225
REMARK   89  A    between atoms: _225  and  _226
REMARK   90  A    between atoms: _225  and  _228
REMARK   91  A    between atoms: _228  and  _229
REMARK   92  A    between atoms: _234  and  _236
REMARK   93  A    between atoms: _236  and  _237
REMARK   94  A    between atoms: _236  and  _239
REMARK   95  A    between atoms: _239  and  _240
REMARK   96  A    between atoms: _246  and  _248
REMARK   97  A    between atoms: _248  and  _249
REMARK   98  A    between atoms: _251  and  _253
REMARK   99  A    between atoms: _253  and  _254
REMARK  100  A    between atoms: _253  and  _256
REMARK  101  A    between atoms: _259  and  _261
REMARK  102  A    between atoms: _261  and  _262
REMARK  103  A    between atoms: _261  and  _264
REMARK  104  A    between atoms: _264  and  _265
REMARK  105  A    between atoms: _268  and  _270
REMARK  106  A    between atoms: _270  and  _271
REMARK  107  A    between atoms: _270  and  _273
REMARK  108  A    between atoms: _273  and  _274
REMARK  109  A    between atoms: _277  and  _279
REMARK  110  A    between atoms: _279  and  _280
REMARK  111  A    between atoms: _279  and  _282
REMARK  112  A    between atoms: _285  and  _287
REMARK  113  A    between atoms: _287  and  _288
REMARK  114  A    between atoms: _287  and  _290
REMARK  115  A    between atoms: _293  and  _295
REMARK  116  A    between atoms: _295  and  _296
REMARK  117  A    between atoms: _295  and  _298
REMARK  118  A    between atoms: _298  and  _299
REMARK  119  A    between atoms: _302  and  _304
REMARK  120  A    between atoms: _304  and  _305
REMARK  121  A    between atoms: _304  and  _307
REMARK  122  A    between atoms: _307  and  _308
REMARK  123  A    between atoms: _311  and  _313
REMARK  124  A    between atoms: _313  and  _314
REMARK  125  A    between atoms: _313  and  _316
REMARK  126  A    between atoms: _316  and  _317
REMARK  127  A    between atoms: _323  and  _325
REMARK  128  A    between atoms: _325  and  _326
REMARK  129  A    between atoms: _325  and  _328
REMARK  130  A    between atoms: _328  and  _329
REMARK  131  A    between atoms: _335  and  _337
REMARK  132  A    between atoms: _337  and  _338
REMARK  133  A    between atoms: _340  and  _342
REMARK  134  A    between atoms: _342  and  _343
REMARK  135  A    between atoms: _342  and  _345
REMARK  136  A    between atoms: _345  and  _346
REMARK  137  A    between atoms: _346  and  _347
REMARK  138  A    between atoms: _350  and  _352
REMARK  139  A    between atoms: _352  and  _353
REMARK  140  A    between atoms: _352  and  _355
REMARK  141  A    between atoms: _355  and  _356
REMARK  142  A    between atoms: _356  and  _357
REMARK  143  A    between atoms: _357  and  _358
REMARK  144  A    between atoms: _358  and  _359
REMARK  145  A    between atoms: _363  and  _365
REMARK  146  A    between atoms: _365  and  _366
REMARK  147  A    between atoms: _365  and  _368
REMARK  148  A    between atoms: _368  and  _369
REMARK  149  A    between atoms: _372  and  _374
REMARK  150  A    between atoms: _374  and  _375
REMARK  151  A    between atoms: _374  and  _377
REMARK  152  A    between atoms: _377  and  _378
REMARK  153  A    between atoms: _383  and  _384
REMARK  154  A    between atoms: _386  and  _388
REMARK  155  A    between atoms: _388  and  _389
REMARK  156  A    between atoms: _388  and  _391
REMARK  157  A    between atoms: _391  and  _392
REMARK  158  A    between atoms: _392  and  _393
REMARK  159  A    between atoms: _398  and  _400
REMARK  160  A    between atoms: _400  and  _401
REMARK  161  A    between atoms: _400  and  _403
REMARK  162  A    between atoms: _403  and  _404
REMARK  163  A    between atoms: _407  and  _409
REMARK  164  A    between atoms: _409  and  _410
REMARK  165  A    between atoms: _409  and  _412
REMARK  166  A    between atoms: _412  and  _413
REMARK  167  A    between atoms: _416  and  _418
REMARK  168  A    between atoms: _418  and  _419
REMARK  169  A    between atoms: _418  and  _421
REMARK  170  A    between atoms: _424  and  _426
REMARK  171  A    between atoms: _426  and  _427
REMARK  172  A    between atoms: _429  and  _431
REMARK  173  A    between atoms: _431  and  _432
REMARK  174  A    between atoms: _431  and  _434
REMARK  175  A    between atoms: _438  and  _439
REMARK  176  A    between atoms: _444  and  _446
REMARK  177  A    between atoms: _446  and  _447
REMARK  178  A    between atoms: _446  and  _449
REMARK  179  A    between atoms: _449  and  _450
REMARK  180  A    between atoms: _453  and  _455
REMARK  181  A    between atoms: _455  and  _456
REMARK  182  A    between atoms: _455  and  _458
REMARK  183  A    between atoms: _461  and  _463
REMARK  184  A    between atoms: _463  and  _464
REMARK  185  A    between atoms: _463  and  _466
REMARK  186  A    between atoms: _466  and  _467
REMARK  187  A    between atoms: _467  and  _468
REMARK  188  A    between atoms: _468  and  _469
REMARK  189  A    between atoms: _478  and  _480
REMARK  190  A    between atoms: _480  and  _481
REMARK  191  A    between atoms: _480  and  _483
REMARK  192  A    between atoms: _483  and  _484
REMARK  193  A    between atoms: _484  and  _485
REMARK  194  A    between atoms: _488  and  _490
REMARK  195  A    between atoms: _490  and  _491
REMARK  196  A    between atoms: _490  and  _493
REMARK  197  A    between atoms: _493  and  _494
REMARK  198  A    between atoms: _497  and  _499
REMARK  199  A    between atoms: _499  and  _500
REMARK  200  A    between atoms: _503  and  _505
REMARK  201  A    between atoms: _505  and  _506
REMARK  202  A    between atoms: _505  and  _508
REMARK  203  A    between atoms: _508  and  _509
REMARK  204  A    between atoms: _509  and  _510
REMARK  205  A    between atoms: _512  and  _514
REMARK  206  A    between atoms: _514  and  _515
REMARK  207  A    between atoms: _514  and  _517
REMARK  208  A    between atoms: _517  and  _518
REMARK  209  A    between atoms: _520  and  _522
REMARK  210  A    between atoms: _522  and  _523
REMARK  211  A    between atoms: _522  and  _525
REMARK  212  A    between atoms: _525  and  _526
REMARK  213  A    between atoms: _528  and  _530
REMARK  214  A    between atoms: _530  and  _531
REMARK  215  A    between atoms: _530  and  _533
REMARK  216  A    between atoms: _533  and  _534
REMARK  217  A    between atoms: _534  and  _535
REMARK  218  A    between atoms: _535  and  _536
REMARK  219  A    between atoms: _545  and  _547
REMARK  220  A    between atoms: _547  and  _548
REMARK  221  A    between atoms: _547  and  _550
REMARK  222  A    between atoms: _550  and  _551
REMARK  223  A    between atoms: _556  and  _558
REMARK  224  A    between atoms: _558  and  _559
REMARK  225  A    between atoms: _558  and  _561
REMARK  226  A    between atoms: _561  and  _562
REMARK                            x       y       z     vdW  Elec       q    Type
REMARK                         _______ _______ _______ _____ _____    ______ ____
ROOT
ATOM      1  O   HOH     1      15.743   3.129  -7.255  0.00  0.00    +0.000 OA
ENDROOT
TORSDOF 0
REMARK  Name = ../refined-set-2016/3cow/3cow_pocket.pdb
REMARK  226 active torsions:
REMARK  status: ('A' for Active; 'I' for Inactive)
REMARK    1  A    between atoms: _1  and  _3
REMARK    2  A    between atoms: _3  and  _4
REMARK    3  A    between atoms: _3  and  _6
REMARK    4  A    between atoms: _10  and  _11
REMARK    5  A    between atoms: _16  and  _18
REMARK    6  A    between atoms: _18  and  _19
REMARK    7  A    between atoms: _18  and  _21
REMARK    8  A    between atoms: _21  and  _22
REMARK    9  A    between atoms: _25  and  _27
REMARK   10  A    between atoms: _27  and  _28
REMARK   11  A    between atoms: _27  and  _30
REMARK   12  A    between atoms: _30  and  _31
REMARK   13  A    between atoms: _31  and  _32
REMARK   14  A    between atoms: _34  and  _36
REMARK   15  A    between atoms: _36  and  _37
REMARK   16  A    between atoms: _39  and  _41
REMARK   17  A    between atoms: _41  and  _42
REMARK   18  A    between atoms: _45  and  _47
REMARK   19  A    between atoms: _47  and  _48
REMARK   20  A    between atoms: _47  and  _50
REMARK   21  A    between atoms: _50  and  _51
REMARK   22  A    between atoms: _54  and  _56
REMARK   23  A    between atoms: _56  and  _57
REMARK   24  A    between atoms: _56  and  _59
REMARK   25  A    between atoms: _59  and  _60
REMARK   26  A    between atoms: _65  and  _67
REMARK   27  A    between atoms: _67  and  _68
REMARK   28  A    between atoms: _67  and  _70
REMARK   29  A    between atoms: _70  and  _71
REMARK   30  A    between atoms: _71  and  _72
REMARK   31  A    between atoms: _75  and  _77
REMARK   32  A    between atoms: _77  and  _78
REMARK   33  A    between atoms: _80  and  _82
REMARK   34  A    between atoms: _82  and  _83
REMARK   35  A    between atoms: _82  and  _85
REMARK   36  A    between atoms: _85  and  _86
REMARK   37  A    between atoms: _91  and  _93
REMARK   38  A    between atoms: _93  and  _94
REMARK   39  A    between atoms: _93  and  _96
REMARK   40  A    between atoms: _96  and  _97
REMARK   41  A    between atoms: _100  and  _102
REMARK   42  A    between atoms: _102  and  _103
REMARK   43  A    between atoms: _106  and  _108
REMARK   44  A    between atoms: _108  and  _109
REMARK   45  A    between atoms: _108  and  _111
REMARK   46  A    between atoms: _111  and  _112
REMARK   47  A    between atoms: _115  and  _117
REMARK   48  A    between atoms: _117  and  _118
REMARK   49  A    between atoms: _117  and  _120
REMARK   50  A    between atoms: _123  and  _125
REMARK   51  A    between atoms: _125  and  _126
REMARK   52  A    between atoms: _125  and  _128
REMARK   53  A    between atoms: _128  and  _129
REMARK   54  A    between atoms: _131  and  _133
REMARK   55  A    between atoms: _133  and  _134
REMARK   56  A    between atoms: _133  and  _136
REMARK   57  A    between atoms: _136  and  _137
REMARK   58  A    between atoms: _140  and  _142
REMARK   59  A    between atoms: _142  and  _143
REMARK   60  A    between atoms: _142  and  _145
REMARK   61  A    between atoms: _145  and  _146
REMARK   62  A    between atoms: _152  and  _154
REMARK   63  A    between atoms: _154  and  _155
REMARK   64  A    between atoms: _154  and  _157
REMARK   65  A    between atoms: _160  and  _162
REMARK   66  A    between atoms: _162  and  _163
REMARK   67  A    between atoms: _162  and  _165
REMARK   68  A    between atoms: _165  and  _166
REMARK   69  A    between atoms: _171  and  _173
REMARK   70  A    between atoms: _173  and  _174
REMARK   71  A    between atoms: _173  and  _176
REMARK   72  A    between atoms: _176  and  _177
REMARK   73  A    between atoms: _177  and  _178
REMARK   74  A    between atoms: _183  and  _185
REMARK   75  A    between atoms: _185  and  _186
REMARK   76  A    between atoms: _185  and  _188
REMARK   77  A    between atoms: _188  and  _189
REMARK   78  A    between atoms: _195  and  _197
REMARK   79  A    between atoms: _197  and  _198
REMARK   80  A    between atoms: _197  and  _200
REMARK   81  A    between atoms: _200  and  _201
REMARK   82  A    between atoms: _206  and  _207
REMARK   83  A    between atoms: _209  and  _211
REMARK   84  A    between atoms: _211  and  _212
REMARK   85  A    between atoms: _211  and  _214
REMARK   86  A    between atoms: _214  and  _215
REMARK   87  A    between atoms: _220  and  _221
REMARK   88  A    between atoms: _223  and  _225
REMARK   89  A    between atoms: _225  and  _226
REMARK   90  A    between atoms: _225  and  _228
REMARK   91  A    between atoms: _228  and  _229
REMARK   92  A    between atoms: _234  and  _236
REMARK   93  A    between atoms: _236  and  _237
REMARK   94  A    between atoms: _236  and  _239
REMARK   95  A    between atoms: _239  and  _240
REMARK   96  A    between atoms: _246  and  _248
REMARK   97  A    between atoms: _248  and  _249
REMARK   98  A    between atoms: _251  and  _253
REMARK   99  A    between atoms: _253  and  _254
REMARK  100  A    between atoms: _253  and  _256
REMARK  101  A    between atoms: _259  and  _261
REMARK  102  A    between atoms: _261  and  _262
REMARK  103  A    between atoms: _261  and  _264
REMARK  104  A    between atoms: _264  and  _265
REMARK  105  A    between atoms: _268  and  _270
REMARK  106  A    between atoms: _270  and  _271
REMARK  107  A    between atoms: _270  and  _273
REMARK  108  A    between atoms: _273  and  _274
REMARK  109  A    between atoms: _277  and  _279
REMARK  110  A    between atoms: _279  and  _280
REMARK  111  A    between atoms: _279  and  _282
REMARK  112  A    between atoms: _285  and  _287
REMARK  113  A    between atoms: _287  and  _288
REMARK  114  A    between atoms: _287  and  _290
REMARK  115  A    between atoms: _293  and  _295
REMARK  116  A    between atoms: _295  and  _296
REMARK  117  A    between atoms: _295  and  _298
REMARK  118  A    between atoms: _298  and  _299
REMARK  119  A    between atoms: _302  and  _304
REMARK  120  A    between atoms: _304  and  _305
REMARK  121  A    between atoms: _304  and  _307
REMARK  122  A    between atoms: _307  and  _308
REMARK  123  A    between atoms: _311  and  _313
REMARK  124  A    between atoms: _313  and  _314
REMARK  125  A    between atoms: _313  and  _316
REMARK  126  A    between atoms: _316  and  _317
REMARK  127  A    between atoms: _323  and  _325
REMARK  128  A    between atoms: _325  and  _326
REMARK  129  A    between atoms: _325  and  _328
REMARK  130  A    between atoms: _328  and  _329
REMARK  131  A    between atoms: _335  and  _337
REMARK  132  A    between atoms: _337  and  _338
REMARK  133  A    between atoms: _340  and  _342
REMARK  134  A    between atoms: _342  and  _343
REMARK  135  A    between atoms: _342  and  _345
REMARK  136  A    between atoms: _345  and  _346
REMARK  137  A    between atoms: _346  and  _347
REMARK  138  A    between atoms: _350  and  _352
REMARK  139  A    between atoms: _352  and  _353
REMARK  140  A    between atoms: _352  and  _355
REMARK  141  A    between atoms: _355  and  _356
REMARK  142  A    between atoms: _356  and  _357
REMARK  143  A    between atoms: _357  and  _358
REMARK  144  A    between atoms: _358  and  _359
REMARK  145  A    between atoms: _363  and  _365
REMARK  146  A    between atoms: _365  and  _366
REMARK  147  A    between atoms: _365  and  _368
REMARK  148  A    between atoms: _368  and  _369
REMARK  149  A    between atoms: _372  and  _374
REMARK  150  A    between atoms: _374  and  _375
REMARK  151  A    between atoms: _374  and  _377
REMARK  152  A    between atoms: _377  and  _378
REMARK  153  A    between atoms: _383  and  _384
REMARK  154  A    between atoms: _386  and  _388
REMARK  155  A    between atoms: _388  and  _389
REMARK  156  A    between atoms: _388  and  _391
REMARK  157  A    between atoms: _391  and  _392
REMARK  158  A    between atoms: _392  and  _393
REMARK  159  A    between atoms: _398  and  _400
REMARK  160  A    between atoms: _400  and  _401
REMARK  161  A    between atoms: _400  and  _403
REMARK  162  A    between atoms: _403  and  _404
REMARK  163  A    between atoms: _407  and  _409
REMARK  164  A    between atoms: _409  and  _410
REMARK  165  A    between atoms: _409  and  _412
REMARK  166  A    between atoms: _412  and  _413
REMARK  167  A    between atoms: _416  and  _418
REMARK  168  A    between atoms: _418  and  _419
REMARK  169  A    between atoms: _418  and  _421
REMARK  170  A    between atoms: _424  and  _426
REMARK  171  A    between atoms: _426  and  _427
REMARK  172  A    between atoms: _429  and  _431
REMARK  173  A    between atoms: _431  and  _432
REMARK  174  A    between atoms: _431  and  _434
REMARK  175  A    between atoms: _438  and  _439
REMARK  176  A    between atoms: _444  and  _446
REMARK  177  A    between atoms: _446  and  _447
REMARK  178  A    between atoms: _446  and  _449
REMARK  179  A    between atoms: _449  and  _450
REMARK  180  A    between atoms: _453  and  _455
REMARK  181  A    between atoms: _455  and  _456
REMARK  182  A    between atoms: _455  and  _458
REMARK  183  A    between atoms: _461  and  _463
REMARK  184  A    between atoms: _463  and  _464
REMARK  185  A    between atoms: _463  and  _466
REMARK  186  A    between atoms: _466  and  _467
REMARK  187  A    between atoms: _467  and  _468
REMARK  188  A    between atoms: _468  and  _469
REMARK  189  A    between atoms: _478  and  _480
REMARK  190  A    between atoms: _480  and  _481
REMARK  191  A    between atoms: _480  and  _483
REMARK  192  A    between atoms: _483  and  _484
REMARK  193  A    between atoms: _484  and  _485
REMARK  194  A    between atoms: _488  and  _490
REMARK  195  A    between atoms: _490  and  _491
REMARK  196  A    between atoms: _490  and  _493
REMARK  197  A    between atoms: _493  and  _494
REMARK  198  A    between atoms: _497  and  _499
REMARK  199  A    between atoms: _499  and  _500
REMARK  200  A    between atoms: _503  and  _505
REMARK  201  A    between atoms: _505  and  _506
REMARK  202  A    between atoms: _505  and  _508
REMARK  203  A    between atoms: _508  and  _509
REMARK  204  A    between atoms: _509  and  _510
REMARK  205  A    between atoms: _512  and  _514
REMARK  206  A    between atoms: _514  and  _515
REMARK  207  A    between atoms: _514  and  _517
REMARK  208  A    between atoms: _517  and  _518
REMARK  209  A    between atoms: _520  and  _522
REMARK  210  A    between atoms: _522  and  _523
REMARK  211  A    between atoms: _522  and  _525
REMARK  212  A    between atoms: _525  and  _526
REMARK  213  A    between atoms: _528  and  _530
REMARK  214  A    between atoms: _530  and  _531
REMARK  215  A    between atoms: _530  and  _533
REMARK  216  A    between atoms: _533  and  _534
REMARK  217  A    between atoms: _534  and  _535
REMARK  218  A    between atoms: _535  and  _536
REMARK  219  A    between atoms: _545  and  _547
REMARK  220  A    between atoms: _547  and  _548
REMARK  221  A    between atoms: _547  and  _550
REMARK  222  A    between atoms: _550  and  _551
REMARK  223  A    between atoms: _556  and  _558
REMARK  224  A    between atoms: _558  and  _559
REMARK  225  A    between atoms: _558  and  _561
REMARK  226  A    between atoms: _561  and  _562
REMARK                            x       y       z     vdW  Elec       q    Type
REMARK                         _______ _______ _______ _____ _____    ______ ____
ROOT
ATOM      1  O   HOH     1      20.228  10.545   4.021  0.00  0.00    +0.000 OA
ENDROOT
TORSDOF 0
REMARK  Name = ../refined-set-2016/3cow/3cow_pocket.pdb
REMARK  226 active torsions:
REMARK  status: ('A' for Active; 'I' for Inactive)
REMARK    1  A    between atoms: _1  and  _3
REMARK    2  A    between atoms: _3  and  _4
REMARK    3  A    between atoms: _3  and  _6
REMARK    4  A    between atoms: _10  and  _11
REMARK    5  A    between atoms: _16  and  _18
REMARK    6  A    between atoms: _18  and  _19
REMARK    7  A    between atoms: _18  and  _21
REMARK    8  A    between atoms: _21  and  _22
REMARK    9  A    between atoms: _25  and  _27
REMARK   10  A    between atoms: _27  and  _28
REMARK   11  A    between atoms: _27  and  _30
REMARK   12  A    between atoms: _30  and  _31
REMARK   13  A    between atoms: _31  and  _32
REMARK   14  A    between atoms: _34  and  _36
REMARK   15  A    between atoms: _36  and  _37
REMARK   16  A    between atoms: _39  and  _41
REMARK   17  A    between atoms: _41  and  _42
REMARK   18  A    between atoms: _45  and  _47
REMARK   19  A    between atoms: _47  and  _48
REMARK   20  A    between atoms: _47  and  _50
REMARK   21  A    between atoms: _50  and  _51
REMARK   22  A    between atoms: _54  and  _56
REMARK   23  A    between atoms: _56  and  _57
REMARK   24  A    between atoms: _56  and  _59
REMARK   25  A    between atoms: _59  and  _60
REMARK   26  A    between atoms: _65  and  _67
REMARK   27  A    between atoms: _67  and  _68
REMARK   28  A    between atoms: _67  and  _70
REMARK   29  A    between atoms: _70  and  _71
REMARK   30  A    between atoms: _71  and  _72
REMARK   31  A    between atoms: _75  and  _77
REMARK   32  A    between atoms: _77  and  _78
REMARK   33  A    between atoms: _80  and  _82
REMARK   34  A    between atoms: _82  and  _83
REMARK   35  A    between atoms: _82  and  _85
REMARK   36  A    between atoms: _85  and  _86
REMARK   37  A    between atoms: _91  and  _93
REMARK   38  A    between atoms: _93  and  _94
REMARK   39  A    between atoms: _93  and  _96
REMARK   40  A    between atoms: _96  and  _97
REMARK   41  A    between atoms: _100  and  _102
REMARK   42  A    between atoms: _102  and  _103
REMARK   43  A    between atoms: _106  and  _108
REMARK   44  A    between atoms: _108  and  _109
REMARK   45  A    between atoms: _108  and  _111
REMARK   46  A    between atoms: _111  and  _112
REMARK   47  A    between atoms: _115  and  _117
REMARK   48  A    between atoms: _117  and  _118
REMARK   49  A    between atoms: _117  and  _120
REMARK   50  A    between atoms: _123  and  _125
REMARK   51  A    between atoms: _125  and  _126
REMARK   52  A    between atoms: _125  and  _128
REMARK   53  A    between atoms: _128  and  _129
REMARK   54  A    between atoms: _131  and  _133
REMARK   55  A    between atoms: _133  and  _134
REMARK   56  A    between atoms: _133  and  _136
REMARK   57  A    between atoms: _136  and  _137
REMARK   58  A    between atoms: _140  and  _142
REMARK   59  A    between atoms: _142  and  _143
REMARK   60  A    between atoms: _142  and  _145
REMARK   61  A    between atoms: _145  and  _146
REMARK   62  A    between atoms: _152  and  _154
REMARK   63  A    between atoms: _154  and  _155
REMARK   64  A    between atoms: _154  and  _157
REMARK   65  A    between atoms: _160  and  _162
REMARK   66  A    between atoms: _162  and  _163
REMARK   67  A    between atoms: _162  and  _165
REMARK   68  A    between atoms: _165  and  _166
REMARK   69  A    between atoms: _171  and  _173
REMARK   70  A    between atoms: _173  and  _174
REMARK   71  A    between atoms: _173  and  _176
REMARK   72  A    between atoms: _176  and  _177
REMARK   73  A    between atoms: _177  and  _178
REMARK   74  A    between atoms: _183  and  _185
REMARK   75  A    between atoms: _185  and  _186
REMARK   76  A    between atoms: _185  and  _188
REMARK   77  A    between atoms: _188  and  _189
REMARK   78  A    between atoms: _195  and  _197
REMARK   79  A    between atoms: _197  and  _198
REMARK   80  A    between atoms: _197  and  _200
REMARK   81  A    between atoms: _200  and  _201
REMARK   82  A    between atoms: _206  and  _207
REMARK   83  A    between atoms: _209  and  _211
REMARK   84  A    between atoms: _211  and  _212
REMARK   85  A    between atoms: _211  and  _214
REMARK   86  A    between atoms: _214  and  _215
REMARK   87  A    between atoms: _220  and  _221
REMARK   88  A    between atoms: _223  and  _225
REMARK   89  A    between atoms: _225  and  _226
REMARK   90  A    between atoms: _225  and  _228
REMARK   91  A    between atoms: _228  and  _229
REMARK   92  A    between atoms: _234  and  _236
REMARK   93  A    between atoms: _236  and  _237
REMARK   94  A    between atoms: _236  and  _239
REMARK   95  A    between atoms: _239  and  _240
REMARK   96  A    between atoms: _246  and  _248
REMARK   97  A    between atoms: _248  and  _249
REMARK   98  A    between atoms: _251  and  _253
REMARK   99  A    between atoms: _253  and  _254
REMARK  100  A    between atoms: _253  and  _256
REMARK  101  A    between atoms: _259  and  _261
REMARK  102  A    between atoms: _261  and  _262
REMARK  103  A    between atoms: _261  and  _264
REMARK  104  A    between atoms: _264  and  _265
REMARK  105  A    between atoms: _268  and  _270
REMARK  106  A    between atoms: _270  and  _271
REMARK  107  A    between atoms: _270  and  _273
REMARK  108  A    between atoms: _273  and  _274
REMARK  109  A    between atoms: _277  and  _279
REMARK  110  A    between atoms: _279  and  _280
REMARK  111  A    between atoms: _279  and  _282
REMARK  112  A    between atoms: _285  and  _287
REMARK  113  A    between atoms: _287  and  _288
REMARK  114  A    between atoms: _287  and  _290
REMARK  115  A    between atoms: _293  and  _295
REMARK  116  A    between atoms: _295  and  _296
REMARK  117  A    between atoms: _295  and  _298
REMARK  118  A    between atoms: _298  and  _299
REMARK  119  A    between atoms: _302  and  _304
REMARK  120  A    between atoms: _304  and  _305
REMARK  121  A    between atoms: _304  and  _307
REMARK  122  A    between atoms: _307  and  _308
REMARK  123  A    between atoms: _311  and  _313
REMARK  124  A    between atoms: _313  and  _314
REMARK  125  A    between atoms: _313  and  _316
REMARK  126  A    between atoms: _316  and  _317
REMARK  127  A    between atoms: _323  and  _325
REMARK  128  A    between atoms: _325  and  _326
REMARK  129  A    between atoms: _325  and  _328
REMARK  130  A    between atoms: _328  and  _329
REMARK  131  A    between atoms: _335  and  _337
REMARK  132  A    between atoms: _337  and  _338
REMARK  133  A    between atoms: _340  and  _342
REMARK  134  A    between atoms: _342  and  _343
REMARK  135  A    between atoms: _342  and  _345
REMARK  136  A    between atoms: _345  and  _346
REMARK  137  A    between atoms: _346  and  _347
REMARK  138  A    between atoms: _350  and  _352
REMARK  139  A    between atoms: _352  and  _353
REMARK  140  A    between atoms: _352  and  _355
REMARK  141  A    between atoms: _355  and  _356
REMARK  142  A    between atoms: _356  and  _357
REMARK  143  A    between atoms: _357  and  _358
REMARK  144  A    between atoms: _358  and  _359
REMARK  145  A    between atoms: _363  and  _365
REMARK  146  A    between atoms: _365  and  _366
REMARK  147  A    between atoms: _365  and  _368
REMARK  148  A    between atoms: _368  and  _369
REMARK  149  A    between atoms: _372  and  _374
REMARK  150  A    between atoms: _374  and  _375
REMARK  151  A    between atoms: _374  and  _377
REMARK  152  A    between atoms: _377  and  _378
REMARK  153  A    between atoms: _383  and  _384
REMARK  154  A    between atoms: _386  and  _388
REMARK  155  A    between atoms: _388  and  _389
REMARK  156  A    between atoms: _388  and  _391
REMARK  157  A    between atoms: _391  and  _392
REMARK  158  A    between atoms: _392  and  _393
REMARK  159  A    between atoms: _398  and  _400
REMARK  160  A    between atoms: _400  and  _401
REMARK  161  A    between atoms: _400  and  _403
REMARK  162  A    between atoms: _403  and  _404
REMARK  163  A    between atoms: _407  and  _409
REMARK  164  A    between atoms: _409  and  _410
REMARK  165  A    between atoms: _409  and  _412
REMARK  166  A    between atoms: _412  and  _413
REMARK  167  A    between atoms: _416  and  _418
REMARK  168  A    between atoms: _418  and  _419
REMARK  169  A    between atoms: _418  and  _421
REMARK  170  A    between atoms: _424  and  _426
REMARK  171  A    between atoms: _426  and  _427
REMARK  172  A    between atoms: _429  and  _431
REMARK  173  A    between atoms: _431  and  _432
REMARK  174  A    between atoms: _431  and  _434
REMARK  175  A    between atoms: _438  and  _439
REMARK  176  A    between atoms: _444  and  _446
REMARK  177  A    between atoms: _446  and  _447
REMARK  178  A    between atoms: _446  and  _449
REMARK  179  A    between atoms: _449  and  _450
REMARK  180  A    between atoms: _453  and  _455
REMARK  181  A    between atoms: _455  and  _456
REMARK  182  A    between atoms: _455  and  _458
REMARK  183  A    between atoms: _461  and  _463
REMARK  184  A    between atoms: _463  and  _464
REMARK  185  A    between atoms: _463  and  _466
REMARK  186  A    between atoms: _466  and  _467
REMARK  187  A    between atoms: _467  and  _468
REMARK  188  A    between atoms: _468  and  _469
REMARK  189  A    between atoms: _478  and  _480
REMARK  190  A    between atoms: _480  and  _481
REMARK  191  A    between atoms: _480  and  _483
REMARK  192  A    between atoms: _483  and  _484
REMARK  193  A    between atoms: _484  and  _485
REMARK  194  A    between atoms: _488  and  _490
REMARK  195  A    between atoms: _490  and  _491
REMARK  196  A    between atoms: _490  and  _493
REMARK  197  A    between atoms: _493  and  _494
REMARK  198  A    between atoms: _497  and  _499
REMARK  199  A    between atoms: _499  and  _500
REMARK  200  A    between atoms: _503  and  _505
REMARK  201  A    between atoms: _505  and  _506
REMARK  202  A    between atoms: _505  and  _508
REMARK  203  A    between atoms: _508  and  _509
REMARK  204  A    between atoms: _509  and  _510
REMARK  205  A    between atoms: _512  and  _514
REMARK  206  A    between atoms: _514  and  _515
REMARK  207  A    between atoms: _514  and  _517
REMARK  208  A    between atoms: _517  and  _518
REMARK  209  A    between atoms: _520  and  _522
REMARK  210  A    between atoms: _522  and  _523
REMARK  211  A    between atoms: _522  and  _525
REMARK  212  A    between atoms: _525  and  _526
REMARK  213  A    between atoms: _528  and  _530
REMARK  214  A    between atoms: _530  and  _531
REMARK  215  A    between atoms: _530  and  _533
REMARK  216  A    between atoms: _533  and  _534
REMARK  217  A    between atoms: _534  and  _535
REMARK  218  A    between atoms: _535  and  _536
REMARK  219  A    between atoms: _545  and  _547
REMARK  220  A    between atoms: _547  and  _548
REMARK  221  A    between atoms: _547  and  _550
REMARK  222  A    between atoms: _550  and  _551
REMARK  223  A    between atoms: _556  and  _558
REMARK  224  A    between atoms: _558  and  _559
REMARK  225  A    between atoms: _558  and  _561
REMARK  226  A    between atoms: _561  and  _562
REMARK                            x       y       z     vdW  Elec       q    Type
REMARK                         _______ _______ _______ _____ _____    ______ ____
ROOT
ATOM      1  O   HOH     1      22.782   9.936   5.648  0.00  0.00    +0.000 OA
ENDROOT
TORSDOF 0
REMARK  Name = ../refined-set-2016/3cow/3cow_pocket.pdb
REMARK  226 active torsions:
REMARK  status: ('A' for Active; 'I' for Inactive)
REMARK    1  A    between atoms: _1  and  _3
REMARK    2  A    between atoms: _3  and  _4
REMARK    3  A    between atoms: _3  and  _6
REMARK    4  A    between atoms: _10  and  _11
REMARK    5  A    between atoms: _16  and  _18
REMARK    6  A    between atoms: _18  and  _19
REMARK    7  A    between atoms: _18  and  _21
REMARK    8  A    between atoms: _21  and  _22
REMARK    9  A    between atoms: _25  and  _27
REMARK   10  A    between atoms: _27  and  _28
REMARK   11  A    between atoms: _27  and  _30
REMARK   12  A    between atoms: _30  and  _31
REMARK   13  A    between atoms: _31  and  _32
REMARK   14  A    between atoms: _34  and  _36
REMARK   15  A    between atoms: _36  and  _37
REMARK   16  A    between atoms: _39  and  _41
REMARK   17  A    between atoms: _41  and  _42
REMARK   18  A    between atoms: _45  and  _47
REMARK   19  A    between atoms: _47  and  _48
REMARK   20  A    between atoms: _47  and  _50
REMARK   21  A    between atoms: _50  and  _51
REMARK   22  A    between atoms: _54  and  _56
REMARK   23  A    between atoms: _56  and  _57
REMARK   24  A    between atoms: _56  and  _59
REMARK   25  A    between atoms: _59  and  _60
REMARK   26  A    between atoms: _65  and  _67
REMARK   27  A    between atoms: _67  and  _68
REMARK   28  A    between atoms: _67  and  _70
REMARK   29  A    between atoms: _70  and  _71
REMARK   30  A    between atoms: _71  and  _72
REMARK   31  A    between atoms: _75  and  _77
REMARK   32  A    between atoms: _77  and  _78
REMARK   33  A    between atoms: _80  and  _82
REMARK   34  A    between atoms: _82  and  _83
REMARK   35  A    between atoms: _82  and  _85
REMARK   36  A    between atoms: _85  and  _86
REMARK   37  A    between atoms: _91  and  _93
REMARK   38  A    between atoms: _93  and  _94
REMARK   39  A    between atoms: _93  and  _96
REMARK   40  A    between atoms: _96  and  _97
REMARK   41  A    between atoms: _100  and  _102
REMARK   42  A    between atoms: _102  and  _103
REMARK   43  A    between atoms: _106  and  _108
REMARK   44  A    between atoms: _108  and  _109
REMARK   45  A    between atoms: _108  and  _111
REMARK   46  A    between atoms: _111  and  _112
REMARK   47  A    between atoms: _115  and  _117
REMARK   48  A    between atoms: _117  and  _118
REMARK   49  A    between atoms: _117  and  _120
REMARK   50  A    between atoms: _123  and  _125
REMARK   51  A    between atoms: _125  and  _126
REMARK   52  A    between atoms: _125  and  _128
REMARK   53  A    between atoms: _128  and  _129
REMARK   54  A    between atoms: _131  and  _133
REMARK   55  A    between atoms: _133  and  _134
REMARK   56  A    between atoms: _133  and  _136
REMARK   57  A    between atoms: _136  and  _137
REMARK   58  A    between atoms: _140  and  _142
REMARK   59  A    between atoms: _142  and  _143
REMARK   60  A    between atoms: _142  and  _145
REMARK   61  A    between atoms: _145  and  _146
REMARK   62  A    between atoms: _152  and  _154
REMARK   63  A    between atoms: _154  and  _155
REMARK   64  A    between atoms: _154  and  _157
REMARK   65  A    between atoms: _160  and  _162
REMARK   66  A    between atoms: _162  and  _163
REMARK   67  A    between atoms: _162  and  _165
REMARK   68  A    between atoms: _165  and  _166
REMARK   69  A    between atoms: _171  and  _173
REMARK   70  A    between atoms: _173  and  _174
REMARK   71  A    between atoms: _173  and  _176
REMARK   72  A    between atoms: _176  and  _177
REMARK   73  A    between atoms: _177  and  _178
REMARK   74  A    between atoms: _183  and  _185
REMARK   75  A    between atoms: _185  and  _186
REMARK   76  A    between atoms: _185  and  _188
REMARK   77  A    between atoms: _188  and  _189
REMARK   78  A    between atoms: _195  and  _197
REMARK   79  A    between atoms: _197  and  _198
REMARK   80  A    between atoms: _197  and  _200
REMARK   81  A    between atoms: _200  and  _201
REMARK   82  A    between atoms: _206  and  _207
REMARK   83  A    between atoms: _209  and  _211
REMARK   84  A    between atoms: _211  and  _212
REMARK   85  A    between atoms: _211  and  _214
REMARK   86  A    between atoms: _214  and  _215
REMARK   87  A    between atoms: _220  and  _221
REMARK   88  A    between atoms: _223  and  _225
REMARK   89  A    between atoms: _225  and  _226
REMARK   90  A    between atoms: _225  and  _228
REMARK   91  A    between atoms: _228  and  _229
REMARK   92  A    between atoms: _234  and  _236
REMARK   93  A    between atoms: _236  and  _237
REMARK   94  A    between atoms: _236  and  _239
REMARK   95  A    between atoms: _239  and  _240
REMARK   96  A    between atoms: _246  and  _248
REMARK   97  A    between atoms: _248  and  _249
REMARK   98  A    between atoms: _251  and  _253
REMARK   99  A    between atoms: _253  and  _254
REMARK  100  A    between atoms: _253  and  _256
REMARK  101  A    between atoms: _259  and  _261
REMARK  102  A    between atoms: _261  and  _262
REMARK  103  A    between atoms: _261  and  _264
REMARK  104  A    between atoms: _264  and  _265
REMARK  105  A    between atoms: _268  and  _270
REMARK  106  A    between atoms: _270  and  _271
REMARK  107  A    between atoms: _270  and  _273
REMARK  108  A    between atoms: _273  and  _274
REMARK  109  A    between atoms: _277  and  _279
REMARK  110  A    between atoms: _279  and  _280
REMARK  111  A    between atoms: _279  and  _282
REMARK  112  A    between atoms: _285  and  _287
REMARK  113  A    between atoms: _287  and  _288
REMARK  114  A    between atoms: _287  and  _290
REMARK  115  A    between atoms: _293  and  _295
REMARK  116  A    between atoms: _295  and  _296
REMARK  117  A    between atoms: _295  and  _298
REMARK  118  A    between atoms: _298  and  _299
REMARK  119  A    between atoms: _302  and  _304
REMARK  120  A    between atoms: _304  and  _305
REMARK  121  A    between atoms: _304  and  _307
REMARK  122  A    between atoms: _307  and  _308
REMARK  123  A    between atoms: _311  and  _313
REMARK  124  A    between atoms: _313  and  _314
REMARK  125  A    between atoms: _313  and  _316
REMARK  126  A    between atoms: _316  and  _317
REMARK  127  A    between atoms: _323  and  _325
REMARK  128  A    between atoms: _325  and  _326
REMARK  129  A    between atoms: _325  and  _328
REMARK  130  A    between atoms: _328  and  _329
REMARK  131  A    between atoms: _335  and  _337
REMARK  132  A    between atoms: _337  and  _338
REMARK  133  A    between atoms: _340  and  _342
REMARK  134  A    between atoms: _342  and  _343
REMARK  135  A    between atoms: _342  and  _345
REMARK  136  A    between atoms: _345  and  _346
REMARK  137  A    between atoms: _346  and  _347
REMARK  138  A    between atoms: _350  and  _352
REMARK  139  A    between atoms: _352  and  _353
REMARK  140  A    between atoms: _352  and  _355
REMARK  141  A    between atoms: _355  and  _356
REMARK  142  A    between atoms: _356  and  _357
REMARK  143  A    between atoms: _357  and  _358
REMARK  144  A    between atoms: _358  and  _359
REMARK  145  A    between atoms: _363  and  _365
REMARK  146  A    between atoms: _365  and  _366
REMARK  147  A    between atoms: _365  and  _368
REMARK  148  A    between atoms: _368  and  _369
REMARK  149  A    between atoms: _372  and  _374
REMARK  150  A    between atoms: _374  and  _375
REMARK  151  A    between atoms: _374  and  _377
REMARK  152  A    between atoms: _377  and  _378
REMARK  153  A    between atoms: _383  and  _384
REMARK  154  A    between atoms: _386  and  _388
REMARK  155  A    between atoms: _388  and  _389
REMARK  156  A    between atoms: _388  and  _391
REMARK  157  A    between atoms: _391  and  _392
REMARK  158  A    between atoms: _392  and  _393
REMARK  159  A    between atoms: _398  and  _400
REMARK  160  A    between atoms: _400  and  _401
REMARK  161  A    between atoms: _400  and  _403
REMARK  162  A    between atoms: _403  and  _404
REMARK  163  A    between atoms: _407  and  _409
REMARK  164  A    between atoms: _409  and  _410
REMARK  165  A    between atoms: _409  and  _412
REMARK  166  A    between atoms: _412  and  _413
REMARK  167  A    between atoms: _416  and  _418
REMARK  168  A    between atoms: _418  and  _419
REMARK  169  A    between atoms: _418  and  _421
REMARK  170  A    between atoms: _424  and  _426
REMARK  171  A    between atoms: _426  and  _427
REMARK  172  A    between atoms: _429  and  _431
REMARK  173  A    between atoms: _431  and  _432
REMARK  174  A    between atoms: _431  and  _434
REMARK  175  A    between atoms: _438  and  _439
REMARK  176  A    between atoms: _444  and  _446
REMARK  177  A    between atoms: _446  and  _447
REMARK  178  A    between atoms: _446  and  _449
REMARK  179  A    between atoms: _449  and  _450
REMARK  180  A    between atoms: _453  and  _455
REMARK  181  A    between atoms: _455  and  _456
REMARK  182  A    between atoms: _455  and  _458
REMARK  183  A    between atoms: _461  and  _463
REMARK  184  A    between atoms: _463  and  _464
REMARK  185  A    between atoms: _463  and  _466
REMARK  186  A    between atoms: _466  and  _467
REMARK  187  A    between atoms: _467  and  _468
REMARK  188  A    between atoms: _468  and  _469
REMARK  189  A    between atoms: _478  and  _480
REMARK  190  A    between atoms: _480  and  _481
REMARK  191  A    between atoms: _480  and  _483
REMARK  192  A    between atoms: _483  and  _484
REMARK  193  A    between atoms: _484  and  _485
REMARK  194  A    between atoms: _488  and  _490
REMARK  195  A    between atoms: _490  and  _491
REMARK  196  A    between atoms: _490  and  _493
REMARK  197  A    between atoms: _493  and  _494
REMARK  198  A    between atoms: _497  and  _499
REMARK  199  A    between atoms: _499  and  _500
REMARK  200  A    between atoms: _503  and  _505
REMARK  201  A    between atoms: _505  and  _506
REMARK  202  A    between atoms: _505  and  _508
REMARK  203  A    between atoms: _508  and  _509
REMARK  204  A    between atoms: _509  and  _510
REMARK  205  A    between atoms: _512  and  _514
REMARK  206  A    between atoms: _514  and  _515
REMARK  207  A    between atoms: _514  and  _517
REMARK  208  A    between atoms: _517  and  _518
REMARK  209  A    between atoms: _520  and  _522
REMARK  210  A    between atoms: _522  and  _523
REMARK  211  A    between atoms: _522  and  _525
REMARK  212  A    between atoms: _525  and  _526
REMARK  213  A    between atoms: _528  and  _530
REMARK  214  A    between atoms: _530  and  _531
REMARK  215  A    between atoms: _530  and  _533
REMARK  216  A    between atoms: _533  and  _534
REMARK  217  A    between atoms: _534  and  _535
REMARK  218  A    between atoms: _535  and  _536
REMARK  219  A    between atoms: _545  and  _547
REMARK  220  A    between atoms: _547  and  _548
REMARK  221  A    between atoms: _547  and  _550
REMARK  222  A    between atoms: _550  and  _551
REMARK  223  A    between atoms: _556  and  _558
REMARK  224  A    between atoms: _558  and  _559
REMARK  225  A    between atoms: _558  and  _561
REMARK  226  A    between atoms: _561  and  _562
REMARK                            x       y       z     vdW  Elec       q    Type
REMARK                         _______ _______ _______ _____ _____    ______ ____
ROOT
ATOM      1  O   HOH     1      19.625   4.712  -4.303  0.00  0.00    +0.000 OA
ENDROOT
TORSDOF 0
REMARK  Name = ../refined-set-2016/3cow/3cow_pocket.pdb
REMARK  226 active torsions:
REMARK  status: ('A' for Active; 'I' for Inactive)
REMARK    1  A    between atoms: _1  and  _3
REMARK    2  A    between atoms: _3  and  _4
REMARK    3  A    between atoms: _3  and  _6
REMARK    4  A    between atoms: _10  and  _11
REMARK    5  A    between atoms: _16  and  _18
REMARK    6  A    between atoms: _18  and  _19
REMARK    7  A    between atoms: _18  and  _21
REMARK    8  A    between atoms: _21  and  _22
REMARK    9  A    between atoms: _25  and  _27
REMARK   10  A    between atoms: _27  and  _28
REMARK   11  A    between atoms: _27  and  _30
REMARK   12  A    between atoms: _30  and  _31
REMARK   13  A    between atoms: _31  and  _32
REMARK   14  A    between atoms: _34  and  _36
REMARK   15  A    between atoms: _36  and  _37
REMARK   16  A    between atoms: _39  and  _41
REMARK   17  A    between atoms: _41  and  _42
REMARK   18  A    between atoms: _45  and  _47
REMARK   19  A    between atoms: _47  and  _48
REMARK   20  A    between atoms: _47  and  _50
REMARK   21  A    between atoms: _50  and  _51
REMARK   22  A    between atoms: _54  and  _56
REMARK   23  A    between atoms: _56  and  _57
REMARK   24  A    between atoms: _56  and  _59
REMARK   25  A    between atoms: _59  and  _60
REMARK   26  A    between atoms: _65  and  _67
REMARK   27  A    between atoms: _67  and  _68
REMARK   28  A    between atoms: _67  and  _70
REMARK   29  A    between atoms: _70  and  _71
REMARK   30  A    between atoms: _71  and  _72
REMARK   31  A    between atoms: _75  and  _77
REMARK   32  A    between atoms: _77  and  _78
REMARK   33  A    between atoms: _80  and  _82
REMARK   34  A    between atoms: _82  and  _83
REMARK   35  A    between atoms: _82  and  _85
REMARK   36  A    between atoms: _85  and  _86
REMARK   37  A    between atoms: _91  and  _93
REMARK   38  A    between atoms: _93  and  _94
REMARK   39  A    between atoms: _93  and  _96
REMARK   40  A    between atoms: _96  and  _97
REMARK   41  A    between atoms: _100  and  _102
REMARK   42  A    between atoms: _102  and  _103
REMARK   43  A    between atoms: _106  and  _108
REMARK   44  A    between atoms: _108  and  _109
REMARK   45  A    between atoms: _108  and  _111
REMARK   46  A    between atoms: _111  and  _112
REMARK   47  A    between atoms: _115  and  _117
REMARK   48  A    between atoms: _117  and  _118
REMARK   49  A    between atoms: _117  and  _120
REMARK   50  A    between atoms: _123  and  _125
REMARK   51  A    between atoms: _125  and  _126
REMARK   52  A    between atoms: _125  and  _128
REMARK   53  A    between atoms: _128  and  _129
REMARK   54  A    between atoms: _131  and  _133
REMARK   55  A    between atoms: _133  and  _134
REMARK   56  A    between atoms: _133  and  _136
REMARK   57  A    between atoms: _136  and  _137
REMARK   58  A    between atoms: _140  and  _142
REMARK   59  A    between atoms: _142  and  _143
REMARK   60  A    between atoms: _142  and  _145
REMARK   61  A    between atoms: _145  and  _146
REMARK   62  A    between atoms: _152  and  _154
REMARK   63  A    between atoms: _154  and  _155
REMARK   64  A    between atoms: _154  and  _157
REMARK   65  A    between atoms: _160  and  _162
REMARK   66  A    between atoms: _162  and  _163
REMARK   67  A    between atoms: _162  and  _165
REMARK   68  A    between atoms: _165  and  _166
REMARK   69  A    between atoms: _171  and  _173
REMARK   70  A    between atoms: _173  and  _174
REMARK   71  A    between atoms: _173  and  _176
REMARK   72  A    between atoms: _176  and  _177
REMARK   73  A    between atoms: _177  and  _178
REMARK   74  A    between atoms: _183  and  _185
REMARK   75  A    between atoms: _185  and  _186
REMARK   76  A    between atoms: _185  and  _188
REMARK   77  A    between atoms: _188  and  _189
REMARK   78  A    between atoms: _195  and  _197
REMARK   79  A    between atoms: _197  and  _198
REMARK   80  A    between atoms: _197  and  _200
REMARK   81  A    between atoms: _200  and  _201
REMARK   82  A    between atoms: _206  and  _207
REMARK   83  A    between atoms: _209  and  _211
REMARK   84  A    between atoms: _211  and  _212
REMARK   85  A    between atoms: _211  and  _214
REMARK   86  A    between atoms: _214  and  _215
REMARK   87  A    between atoms: _220  and  _221
REMARK   88  A    between atoms: _223  and  _225
REMARK   89  A    between atoms: _225  and  _226
REMARK   90  A    between atoms: _225  and  _228
REMARK   91  A    between atoms: _228  and  _229
REMARK   92  A    between atoms: _234  and  _236
REMARK   93  A    between atoms: _236  and  _237
REMARK   94  A    between atoms: _236  and  _239
REMARK   95  A    between atoms: _239  and  _240
REMARK   96  A    between atoms: _246  and  _248
REMARK   97  A    between atoms: _248  and  _249
REMARK   98  A    between atoms: _251  and  _253
REMARK   99  A    between atoms: _253  and  _254
REMARK  100  A    between atoms: _253  and  _256
REMARK  101  A    between atoms: _259  and  _261
REMARK  102  A    between atoms: _261  and  _262
REMARK  103  A    between atoms: _261  and  _264
REMARK  104  A    between atoms: _264  and  _265
REMARK  105  A    between atoms: _268  and  _270
REMARK  106  A    between atoms: _270  and  _271
REMARK  107  A    between atoms: _270  and  _273
REMARK  108  A    between atoms: _273  and  _274
REMARK  109  A    between atoms: _277  and  _279
REMARK  110  A    between atoms: _279  and  _280
REMARK  111  A    between atoms: _279  and  _282
REMARK  112  A    between atoms: _285  and  _287
REMARK  113  A    between atoms: _287  and  _288
REMARK  114  A    between atoms: _287  and  _290
REMARK  115  A    between atoms: _293  and  _295
REMARK  116  A    between atoms: _295  and  _296
REMARK  117  A    between atoms: _295  and  _298
REMARK  118  A    between atoms: _298  and  _299
REMARK  119  A    between atoms: _302  and  _304
REMARK  120  A    between atoms: _304  and  _305
REMARK  121  A    between atoms: _304  and  _307
REMARK  122  A    between atoms: _307  and  _308
REMARK  123  A    between atoms: _311  and  _313
REMARK  124  A    between atoms: _313  and  _314
REMARK  125  A    between atoms: _313  and  _316
REMARK  126  A    between atoms: _316  and  _317
REMARK  127  A    between atoms: _323  and  _325
REMARK  128  A    between atoms: _325  and  _326
REMARK  129  A    between atoms: _325  and  _328
REMARK  130  A    between atoms: _328  and  _329
REMARK  131  A    between atoms: _335  and  _337
REMARK  132  A    between atoms: _337  and  _338
REMARK  133  A    between atoms: _340  and  _342
REMARK  134  A    between atoms: _342  and  _343
REMARK  135  A    between atoms: _342  and  _345
REMARK  136  A    between atoms: _345  and  _346
REMARK  137  A    between atoms: _346  and  _347
REMARK  138  A    between atoms: _350  and  _352
REMARK  139  A    between atoms: _352  and  _353
REMARK  140  A    between atoms: _352  and  _355
REMARK  141  A    between atoms: _355  and  _356
REMARK  142  A    between atoms: _356  and  _357
REMARK  143  A    between atoms: _357  and  _358
REMARK  144  A    between atoms: _358  and  _359
REMARK  145  A    between atoms: _363  and  _365
REMARK  146  A    between atoms: _365  and  _366
REMARK  147  A    between atoms: _365  and  _368
REMARK  148  A    between atoms: _368  and  _369
REMARK  149  A    between atoms: _372  and  _374
REMARK  150  A    between atoms: _374  and  _375
REMARK  151  A    between atoms: _374  and  _377
REMARK  152  A    between atoms: _377  and  _378
REMARK  153  A    between atoms: _383  and  _384
REMARK  154  A    between atoms: _386  and  _388
REMARK  155  A    between atoms: _388  and  _389
REMARK  156  A    between atoms: _388  and  _391
REMARK  157  A    between atoms: _391  and  _392
REMARK  158  A    between atoms: _392  and  _393
REMARK  159  A    between atoms: _398  and  _400
REMARK  160  A    between atoms: _400  and  _401
REMARK  161  A    between atoms: _400  and  _403
REMARK  162  A    between atoms: _403  and  _404
REMARK  163  A    between atoms: _407  and  _409
REMARK  164  A    between atoms: _409  and  _410
REMARK  165  A    between atoms: _409  and  _412
REMARK  166  A    between atoms: _412  and  _413
REMARK  167  A    between atoms: _416  and  _418
REMARK  168  A    between atoms: _418  and  _419
REMARK  169  A    between atoms: _418  and  _421
REMARK  170  A    between atoms: _424  and  _426
REMARK  171  A    between atoms: _426  and  _427
REMARK  172  A    between atoms: _429  and  _431
REMARK  173  A    between atoms: _431  and  _432
REMARK  174  A    between atoms: _431  and  _434
REMARK  175  A    between atoms: _438  and  _439
REMARK  176  A    between atoms: _444  and  _446
REMARK  177  A    between atoms: _446  and  _447
REMARK  178  A    between atoms: _446  and  _449
REMARK  179  A    between atoms: _449  and  _450
REMARK  180  A    between atoms: _453  and  _455
REMARK  181  A    between atoms: _455  and  _456
REMARK  182  A    between atoms: _455  and  _458
REMARK  183  A    between atoms: _461  and  _463
REMARK  184  A    between atoms: _463  and  _464
REMARK  185  A    between atoms: _463  and  _466
REMARK  186  A    between atoms: _466  and  _467
REMARK  187  A    between atoms: _467  and  _468
REMARK  188  A    between atoms: _468  and  _469
REMARK  189  A    between atoms: _478  and  _480
REMARK  190  A    between atoms: _480  and  _481
REMARK  191  A    between atoms: _480  and  _483
REMARK  192  A    between atoms: _483  and  _484
REMARK  193  A    between atoms: _484  and  _485
REMARK  194  A    between atoms: _488  and  _490
REMARK  195  A    between atoms: _490  and  _491
REMARK  196  A    between atoms: _490  and  _493
REMARK  197  A    between atoms: _493  and  _494
REMARK  198  A    between atoms: _497  and  _499
REMARK  199  A    between atoms: _499  and  _500
REMARK  200  A    between atoms: _503  and  _505
REMARK  201  A    between atoms: _505  and  _506
REMARK  202  A    between atoms: _505  and  _508
REMARK  203  A    between atoms: _508  and  _509
REMARK  204  A    between atoms: _509  and  _510
REMARK  205  A    between atoms: _512  and  _514
REMARK  206  A    between atoms: _514  and  _515
REMARK  207  A    between atoms: _514  and  _517
REMARK  208  A    between atoms: _517  and  _518
REMARK  209  A    between atoms: _520  and  _522
REMARK  210  A    between atoms: _522  and  _523
REMARK  211  A    between atoms: _522  and  _525
REMARK  212  A    between atoms: _525  and  _526
REMARK  213  A    between atoms: _528  and  _530
REMARK  214  A    between atoms: _530  and  _531
REMARK  215  A    between atoms: _530  and  _533
REMARK  216  A    between atoms: _533  and  _534
REMARK  217  A    between atoms: _534  and  _535
REMARK  218  A    between atoms: _535  and  _536
REMARK  219  A    between atoms: _545  and  _547
REMARK  220  A    between atoms: _547  and  _548
REMARK  221  A    between atoms: _547  and  _550
REMARK  222  A    between atoms: _550  and  _551
REMARK  223  A    between atoms: _556  and  _558
REMARK  224  A    between atoms: _558  and  _559
REMARK  225  A    between atoms: _558  and  _561
REMARK  226  A    between atoms: _561  and  _562
REMARK                            x       y       z     vdW  Elec       q    Type
REMARK                         _______ _______ _______ _____ _____    ______ ____
ROOT
ATOM      1  O   HOH     1      13.081  10.470 -12.643  0.00  0.00    +0.000 OA
ENDROOT
TORSDOF 0
REMARK  Name = ../refined-set-2016/3cow/3cow_pocket.pdb
REMARK  226 active torsions:
REMARK  status: ('A' for Active; 'I' for Inactive)
REMARK    1  A    between atoms: _1  and  _3
REMARK    2  A    between atoms: _3  and  _4
REMARK    3  A    between atoms: _3  and  _6
REMARK    4  A    between atoms: _10  and  _11
REMARK    5  A    between atoms: _16  and  _18
REMARK    6  A    between atoms: _18  and  _19
REMARK    7  A    between atoms: _18  and  _21
REMARK    8  A    between atoms: _21  and  _22
REMARK    9  A    between atoms: _25  and  _27
REMARK   10  A    between atoms: _27  and  _28
REMARK   11  A    between atoms: _27  and  _30
REMARK   12  A    between atoms: _30  and  _31
REMARK   13  A    between atoms: _31  and  _32
REMARK   14  A    between atoms: _34  and  _36
REMARK   15  A    between atoms: _36  and  _37
REMARK   16  A    between atoms: _39  and  _41
REMARK   17  A    between atoms: _41  and  _42
REMARK   18  A    between atoms: _45  and  _47
REMARK   19  A    between atoms: _47  and  _48
REMARK   20  A    between atoms: _47  and  _50
REMARK   21  A    between atoms: _50  and  _51
REMARK   22  A    between atoms: _54  and  _56
REMARK   23  A    between atoms: _56  and  _57
REMARK   24  A    between atoms: _56  and  _59
REMARK   25  A    between atoms: _59  and  _60
REMARK   26  A    between atoms: _65  and  _67
REMARK   27  A    between atoms: _67  and  _68
REMARK   28  A    between atoms: _67  and  _70
REMARK   29  A    between atoms: _70  and  _71
REMARK   30  A    between atoms: _71  and  _72
REMARK   31  A    between atoms: _75  and  _77
REMARK   32  A    between atoms: _77  and  _78
REMARK   33  A    between atoms: _80  and  _82
REMARK   34  A    between atoms: _82  and  _83
REMARK   35  A    between atoms: _82  and  _85
REMARK   36  A    between atoms: _85  and  _86
REMARK   37  A    between atoms: _91  and  _93
REMARK   38  A    between atoms: _93  and  _94
REMARK   39  A    between atoms: _93  and  _96
REMARK   40  A    between atoms: _96  and  _97
REMARK   41  A    between atoms: _100  and  _102
REMARK   42  A    between atoms: _102  and  _103
REMARK   43  A    between atoms: _106  and  _108
REMARK   44  A    between atoms: _108  and  _109
REMARK   45  A    between atoms: _108  and  _111
REMARK   46  A    between atoms: _111  and  _112
REMARK   47  A    between atoms: _115  and  _117
REMARK   48  A    between atoms: _117  and  _118
REMARK   49  A    between atoms: _117  and  _120
REMARK   50  A    between atoms: _123  and  _125
REMARK   51  A    between atoms: _125  and  _126
REMARK   52  A    between atoms: _125  and  _128
REMARK   53  A    between atoms: _128  and  _129
REMARK   54  A    between atoms: _131  and  _133
REMARK   55  A    between atoms: _133  and  _134
REMARK   56  A    between atoms: _133  and  _136
REMARK   57  A    between atoms: _136  and  _137
REMARK   58  A    between atoms: _140  and  _142
REMARK   59  A    between atoms: _142  and  _143
REMARK   60  A    between atoms: _142  and  _145
REMARK   61  A    between atoms: _145  and  _146
REMARK   62  A    between atoms: _152  and  _154
REMARK   63  A    between atoms: _154  and  _155
REMARK   64  A    between atoms: _154  and  _157
REMARK   65  A    between atoms: _160  and  _162
REMARK   66  A    between atoms: _162  and  _163
REMARK   67  A    between atoms: _162  and  _165
REMARK   68  A    between atoms: _165  and  _166
REMARK   69  A    between atoms: _171  and  _173
REMARK   70  A    between atoms: _173  and  _174
REMARK   71  A    between atoms: _173  and  _176
REMARK   72  A    between atoms: _176  and  _177
REMARK   73  A    between atoms: _177  and  _178
REMARK   74  A    between atoms: _183  and  _185
REMARK   75  A    between atoms: _185  and  _186
REMARK   76  A    between atoms: _185  and  _188
REMARK   77  A    between atoms: _188  and  _189
REMARK   78  A    between atoms: _195  and  _197
REMARK   79  A    between atoms: _197  and  _198
REMARK   80  A    between atoms: _197  and  _200
REMARK   81  A    between atoms: _200  and  _201
REMARK   82  A    between atoms: _206  and  _207
REMARK   83  A    between atoms: _209  and  _211
REMARK   84  A    between atoms: _211  and  _212
REMARK   85  A    between atoms: _211  and  _214
REMARK   86  A    between atoms: _214  and  _215
REMARK   87  A    between atoms: _220  and  _221
REMARK   88  A    between atoms: _223  and  _225
REMARK   89  A    between atoms: _225  and  _226
REMARK   90  A    between atoms: _225  and  _228
REMARK   91  A    between atoms: _228  and  _229
REMARK   92  A    between atoms: _234  and  _236
REMARK   93  A    between atoms: _236  and  _237
REMARK   94  A    between atoms: _236  and  _239
REMARK   95  A    between atoms: _239  and  _240
REMARK   96  A    between atoms: _246  and  _248
REMARK   97  A    between atoms: _248  and  _249
REMARK   98  A    between atoms: _251  and  _253
REMARK   99  A    between atoms: _253  and  _254
REMARK  100  A    between atoms: _253  and  _256
REMARK  101  A    between atoms: _259  and  _261
REMARK  102  A    between atoms: _261  and  _262
REMARK  103  A    between atoms: _261  and  _264
REMARK  104  A    between atoms: _264  and  _265
REMARK  105  A    between atoms: _268  and  _270
REMARK  106  A    between atoms: _270  and  _271
REMARK  107  A    between atoms: _270  and  _273
REMARK  108  A    between atoms: _273  and  _274
REMARK  109  A    between atoms: _277  and  _279
REMARK  110  A    between atoms: _279  and  _280
REMARK  111  A    between atoms: _279  and  _282
REMARK  112  A    between atoms: _285  and  _287
REMARK  113  A    between atoms: _287  and  _288
REMARK  114  A    between atoms: _287  and  _290
REMARK  115  A    between atoms: _293  and  _295
REMARK  116  A    between atoms: _295  and  _296
REMARK  117  A    between atoms: _295  and  _298
REMARK  118  A    between atoms: _298  and  _299
REMARK  119  A    between atoms: _302  and  _304
REMARK  120  A    between atoms: _304  and  _305
REMARK  121  A    between atoms: _304  and  _307
REMARK  122  A    between atoms: _307  and  _308
REMARK  123  A    between atoms: _311  and  _313
REMARK  124  A    between atoms: _313  and  _314
REMARK  125  A    between atoms: _313  and  _316
REMARK  126  A    between atoms: _316  and  _317
REMARK  127  A    between atoms: _323  and  _325
REMARK  128  A    between atoms: _325  and  _326
REMARK  129  A    between atoms: _325  and  _328
REMARK  130  A    between atoms: _328  and  _329
REMARK  131  A    between atoms: _335  and  _337
REMARK  132  A    between atoms: _337  and  _338
REMARK  133  A    between atoms: _340  and  _342
REMARK  134  A    between atoms: _342  and  _343
REMARK  135  A    between atoms: _342  and  _345
REMARK  136  A    between atoms: _345  and  _346
REMARK  137  A    between atoms: _346  and  _347
REMARK  138  A    between atoms: _350  and  _352
REMARK  139  A    between atoms: _352  and  _353
REMARK  140  A    between atoms: _352  and  _355
REMARK  141  A    between atoms: _355  and  _356
REMARK  142  A    between atoms: _356  and  _357
REMARK  143  A    between atoms: _357  and  _358
REMARK  144  A    between atoms: _358  and  _359
REMARK  145  A    between atoms: _363  and  _365
REMARK  146  A    between atoms: _365  and  _366
REMARK  147  A    between atoms: _365  and  _368
REMARK  148  A    between atoms: _368  and  _369
REMARK  149  A    between atoms: _372  and  _374
REMARK  150  A    between atoms: _374  and  _375
REMARK  151  A    between atoms: _374  and  _377
REMARK  152  A    between atoms: _377  and  _378
REMARK  153  A    between atoms: _383  and  _384
REMARK  154  A    between atoms: _386  and  _388
REMARK  155  A    between atoms: _388  and  _389
REMARK  156  A    between atoms: _388  and  _391
REMARK  157  A    between atoms: _391  and  _392
REMARK  158  A    between atoms: _392  and  _393
REMARK  159  A    between atoms: _398  and  _400
REMARK  160  A    between atoms: _400  and  _401
REMARK  161  A    between atoms: _400  and  _403
REMARK  162  A    between atoms: _403  and  _404
REMARK  163  A    between atoms: _407  and  _409
REMARK  164  A    between atoms: _409  and  _410
REMARK  165  A    between atoms: _409  and  _412
REMARK  166  A    between atoms: _412  and  _413
REMARK  167  A    between atoms: _416  and  _418
REMARK  168  A    between atoms: _418  and  _419
REMARK  169  A    between atoms: _418  and  _421
REMARK  170  A    between atoms: _424  and  _426
REMARK  171  A    between atoms: _426  and  _427
REMARK  172  A    between atoms: _429  and  _431
REMARK  173  A    between atoms: _431  and  _432
REMARK  174  A    between atoms: _431  and  _434
REMARK  175  A    between atoms: _438  and  _439
REMARK  176  A    between atoms: _444  and  _446
REMARK  177  A    between atoms: _446  and  _447
REMARK  178  A    between atoms: _446  and  _449
REMARK  179  A    between atoms: _449  and  _450
REMARK  180  A    between atoms: _453  and  _455
REMARK  181  A    between atoms: _455  and  _456
REMARK  182  A    between atoms: _455  and  _458
REMARK  183  A    between atoms: _461  and  _463
REMARK  184  A    between atoms: _463  and  _464
REMARK  185  A    between atoms: _463  and  _466
REMARK  186  A    between atoms: _466  and  _467
REMARK  187  A    between atoms: _467  and  _468
REMARK  188  A    between atoms: _468  and  _469
REMARK  189  A    between atoms: _478  and  _480
REMARK  190  A    between atoms: _480  and  _481
REMARK  191  A    between atoms: _480  and  _483
REMARK  192  A    between atoms: _483  and  _484
REMARK  193  A    between atoms: _484  and  _485
REMARK  194  A    between atoms: _488  and  _490
REMARK  195  A    between atoms: _490  and  _491
REMARK  196  A    between atoms: _490  and  _493
REMARK  197  A    between atoms: _493  and  _494
REMARK  198  A    between atoms: _497  and  _499
REMARK  199  A    between atoms: _499  and  _500
REMARK  200  A    between atoms: _503  and  _505
REMARK  201  A    between atoms: _505  and  _506
REMARK  202  A    between atoms: _505  and  _508
REMARK  203  A    between atoms: _508  and  _509
REMARK  204  A    between atoms: _509  and  _510
REMARK  205  A    between atoms: _512  and  _514
REMARK  206  A    between atoms: _514  and  _515
REMARK  207  A    between atoms: _514  and  _517
REMARK  208  A    between atoms: _517  and  _518
REMARK  209  A    between atoms: _520  and  _522
REMARK  210  A    between atoms: _522  and  _523
REMARK  211  A    between atoms: _522  and  _525
REMARK  212  A    between atoms: _525  and  _526
REMARK  213  A    between atoms: _528  and  _530
REMARK  214  A    between atoms: _530  and  _531
REMARK  215  A    between atoms: _530  and  _533
REMARK  216  A    between atoms: _533  and  _534
REMARK  217  A    between atoms: _534  and  _535
REMARK  218  A    between atoms: _535  and  _536
REMARK  219  A    between atoms: _545  and  _547
REMARK  220  A    between atoms: _547  and  _548
REMARK  221  A    between atoms: _547  and  _550
REMARK  222  A    between atoms: _550  and  _551
REMARK  223  A    between atoms: _556  and  _558
REMARK  224  A    between atoms: _558  and  _559
REMARK  225  A    between atoms: _558  and  _561
REMARK  226  A    between atoms: _561  and  _562
REMARK                            x       y       z     vdW  Elec       q    Type
REMARK                         _______ _______ _______ _____ _____    ______ ____
ROOT
ATOM      1  O   HOH     1       5.955   9.130  -8.131  0.00  0.00    +0.000 OA
ENDROOT
TORSDOF 0
REMARK  Name = ../refined-set-2016/3cow/3cow_pocket.pdb
REMARK  226 active torsions:
REMARK  status: ('A' for Active; 'I' for Inactive)
REMARK    1  A    between atoms: _1  and  _3
REMARK    2  A    between atoms: _3  and  _4
REMARK    3  A    between atoms: _3  and  _6
REMARK    4  A    between atoms: _10  and  _11
REMARK    5  A    between atoms: _16  and  _18
REMARK    6  A    between atoms: _18  and  _19
REMARK    7  A    between atoms: _18  and  _21
REMARK    8  A    between atoms: _21  and  _22
REMARK    9  A    between atoms: _25  and  _27
REMARK   10  A    between atoms: _27  and  _28
REMARK   11  A    between atoms: _27  and  _30
REMARK   12  A    between atoms: _30  and  _31
REMARK   13  A    between atoms: _31  and  _32
REMARK   14  A    between atoms: _34  and  _36
REMARK   15  A    between atoms: _36  and  _37
REMARK   16  A    between atoms: _39  and  _41
REMARK   17  A    between atoms: _41  and  _42
REMARK   18  A    between atoms: _45  and  _47
REMARK   19  A    between atoms: _47  and  _48
REMARK   20  A    between atoms: _47  and  _50
REMARK   21  A    between atoms: _50  and  _51
REMARK   22  A    between atoms: _54  and  _56
REMARK   23  A    between atoms: _56  and  _57
REMARK   24  A    between atoms: _56  and  _59
REMARK   25  A    between atoms: _59  and  _60
REMARK   26  A    between atoms: _65  and  _67
REMARK   27  A    between atoms: _67  and  _68
REMARK   28  A    between atoms: _67  and  _70
REMARK   29  A    between atoms: _70  and  _71
REMARK   30  A    between atoms: _71  and  _72
REMARK   31  A    between atoms: _75  and  _77
REMARK   32  A    between atoms: _77  and  _78
REMARK   33  A    between atoms: _80  and  _82
REMARK   34  A    between atoms: _82  and  _83
REMARK   35  A    between atoms: _82  and  _85
REMARK   36  A    between atoms: _85  and  _86
REMARK   37  A    between atoms: _91  and  _93
REMARK   38  A    between atoms: _93  and  _94
REMARK   39  A    between atoms: _93  and  _96
REMARK   40  A    between atoms: _96  and  _97
REMARK   41  A    between atoms: _100  and  _102
REMARK   42  A    between atoms: _102  and  _103
REMARK   43  A    between atoms: _106  and  _108
REMARK   44  A    between atoms: _108  and  _109
REMARK   45  A    between atoms: _108  and  _111
REMARK   46  A    between atoms: _111  and  _112
REMARK   47  A    between atoms: _115  and  _117
REMARK   48  A    between atoms: _117  and  _118
REMARK   49  A    between atoms: _117  and  _120
REMARK   50  A    between atoms: _123  and  _125
REMARK   51  A    between atoms: _125  and  _126
REMARK   52  A    between atoms: _125  and  _128
REMARK   53  A    between atoms: _128  and  _129
REMARK   54  A    between atoms: _131  and  _133
REMARK   55  A    between atoms: _133  and  _134
REMARK   56  A    between atoms: _133  and  _136
REMARK   57  A    between atoms: _136  and  _137
REMARK   58  A    between atoms: _140  and  _142
REMARK   59  A    between atoms: _142  and  _143
REMARK   60  A    between atoms: _142  and  _145
REMARK   61  A    between atoms: _145  and  _146
REMARK   62  A    between atoms: _152  and  _154
REMARK   63  A    between atoms: _154  and  _155
REMARK   64  A    between atoms: _154  and  _157
REMARK   65  A    between atoms: _160  and  _162
REMARK   66  A    between atoms: _162  and  _163
REMARK   67  A    between atoms: _162  and  _165
REMARK   68  A    between atoms: _165  and  _166
REMARK   69  A    between atoms: _171  and  _173
REMARK   70  A    between atoms: _173  and  _174
REMARK   71  A    between atoms: _173  and  _176
REMARK   72  A    between atoms: _176  and  _177
REMARK   73  A    between atoms: _177  and  _178
REMARK   74  A    between atoms: _183  and  _185
REMARK   75  A    between atoms: _185  and  _186
REMARK   76  A    between atoms: _185  and  _188
REMARK   77  A    between atoms: _188  and  _189
REMARK   78  A    between atoms: _195  and  _197
REMARK   79  A    between atoms: _197  and  _198
REMARK   80  A    between atoms: _197  and  _200
REMARK   81  A    between atoms: _200  and  _201
REMARK   82  A    between atoms: _206  and  _207
REMARK   83  A    between atoms: _209  and  _211
REMARK   84  A    between atoms: _211  and  _212
REMARK   85  A    between atoms: _211  and  _214
REMARK   86  A    between atoms: _214  and  _215
REMARK   87  A    between atoms: _220  and  _221
REMARK   88  A    between atoms: _223  and  _225
REMARK   89  A    between atoms: _225  and  _226
REMARK   90  A    between atoms: _225  and  _228
REMARK   91  A    between atoms: _228  and  _229
REMARK   92  A    between atoms: _234  and  _236
REMARK   93  A    between atoms: _236  and  _237
REMARK   94  A    between atoms: _236  and  _239
REMARK   95  A    between atoms: _239  and  _240
REMARK   96  A    between atoms: _246  and  _248
REMARK   97  A    between atoms: _248  and  _249
REMARK   98  A    between atoms: _251  and  _253
REMARK   99  A    between atoms: _253  and  _254
REMARK  100  A    between atoms: _253  and  _256
REMARK  101  A    between atoms: _259  and  _261
REMARK  102  A    between atoms: _261  and  _262
REMARK  103  A    between atoms: _261  and  _264
REMARK  104  A    between atoms: _264  and  _265
REMARK  105  A    between atoms: _268  and  _270
REMARK  106  A    between atoms: _270  and  _271
REMARK  107  A    between atoms: _270  and  _273
REMARK  108  A    between atoms: _273  and  _274
REMARK  109  A    between atoms: _277  and  _279
REMARK  110  A    between atoms: _279  and  _280
REMARK  111  A    between atoms: _279  and  _282
REMARK  112  A    between atoms: _285  and  _287
REMARK  113  A    between atoms: _287  and  _288
REMARK  114  A    between atoms: _287  and  _290
REMARK  115  A    between atoms: _293  and  _295
REMARK  116  A    between atoms: _295  and  _296
REMARK  117  A    between atoms: _295  and  _298
REMARK  118  A    between atoms: _298  and  _299
REMARK  119  A    between atoms: _302  and  _304
REMARK  120  A    between atoms: _304  and  _305
REMARK  121  A    between atoms: _304  and  _307
REMARK  122  A    between atoms: _307  and  _308
REMARK  123  A    between atoms: _311  and  _313
REMARK  124  A    between atoms: _313  and  _314
REMARK  125  A    between atoms: _313  and  _316
REMARK  126  A    between atoms: _316  and  _317
REMARK  127  A    between atoms: _323  and  _325
REMARK  128  A    between atoms: _325  and  _326
REMARK  129  A    between atoms: _325  and  _328
REMARK  130  A    between atoms: _328  and  _329
REMARK  131  A    between atoms: _335  and  _337
REMARK  132  A    between atoms: _337  and  _338
REMARK  133  A    between atoms: _340  and  _342
REMARK  134  A    between atoms: _342  and  _343
REMARK  135  A    between atoms: _342  and  _345
REMARK  136  A    between atoms: _345  and  _346
REMARK  137  A    between atoms: _346  and  _347
REMARK  138  A    between atoms: _350  and  _352
REMARK  139  A    between atoms: _352  and  _353
REMARK  140  A    between atoms: _352  and  _355
REMARK  141  A    between atoms: _355  and  _356
REMARK  142  A    between atoms: _356  and  _357
REMARK  143  A    between atoms: _357  and  _358
REMARK  144  A    between atoms: _358  and  _359
REMARK  145  A    between atoms: _363  and  _365
REMARK  146  A    between atoms: _365  and  _366
REMARK  147  A    between atoms: _365  and  _368
REMARK  148  A    between atoms: _368  and  _369
REMARK  149  A    between atoms: _372  and  _374
REMARK  150  A    between atoms: _374  and  _375
REMARK  151  A    between atoms: _374  and  _377
REMARK  152  A    between atoms: _377  and  _378
REMARK  153  A    between atoms: _383  and  _384
REMARK  154  A    between atoms: _386  and  _388
REMARK  155  A    between atoms: _388  and  _389
REMARK  156  A    between atoms: _388  and  _391
REMARK  157  A    between atoms: _391  and  _392
REMARK  158  A    between atoms: _392  and  _393
REMARK  159  A    between atoms: _398  and  _400
REMARK  160  A    between atoms: _400  and  _401
REMARK  161  A    between atoms: _400  and  _403
REMARK  162  A    between atoms: _403  and  _404
REMARK  163  A    between atoms: _407  and  _409
REMARK  164  A    between atoms: _409  and  _410
REMARK  165  A    between atoms: _409  and  _412
REMARK  166  A    between atoms: _412  and  _413
REMARK  167  A    between atoms: _416  and  _418
REMARK  168  A    between atoms: _418  and  _419
REMARK  169  A    between atoms: _418  and  _421
REMARK  170  A    between atoms: _424  and  _426
REMARK  171  A    between atoms: _426  and  _427
REMARK  172  A    between atoms: _429  and  _431
REMARK  173  A    between atoms: _431  and  _432
REMARK  174  A    between atoms: _431  and  _434
REMARK  175  A    between atoms: _438  and  _439
REMARK  176  A    between atoms: _444  and  _446
REMARK  177  A    between atoms: _446  and  _447
REMARK  178  A    between atoms: _446  and  _449
REMARK  179  A    between atoms: _449  and  _450
REMARK  180  A    between atoms: _453  and  _455
REMARK  181  A    between atoms: _455  and  _456
REMARK  182  A    between atoms: _455  and  _458
REMARK  183  A    between atoms: _461  and  _463
REMARK  184  A    between atoms: _463  and  _464
REMARK  185  A    between atoms: _463  and  _466
REMARK  186  A    between atoms: _466  and  _467
REMARK  187  A    between atoms: _467  and  _468
REMARK  188  A    between atoms: _468  and  _469
REMARK  189  A    between atoms: _478  and  _480
REMARK  190  A    between atoms: _480  and  _481
REMARK  191  A    between atoms: _480  and  _483
REMARK  192  A    between atoms: _483  and  _484
REMARK  193  A    between atoms: _484  and  _485
REMARK  194  A    between atoms: _488  and  _490
REMARK  195  A    between atoms: _490  and  _491
REMARK  196  A    between atoms: _490  and  _493
REMARK  197  A    between atoms: _493  and  _494
REMARK  198  A    between atoms: _497  and  _499
REMARK  199  A    between atoms: _499  and  _500
REMARK  200  A    between atoms: _503  and  _505
REMARK  201  A    between atoms: _505  and  _506
REMARK  202  A    between atoms: _505  and  _508
REMARK  203  A    between atoms: _508  and  _509
REMARK  204  A    between atoms: _509  and  _510
REMARK  205  A    between atoms: _512  and  _514
REMARK  206  A    between atoms: _514  and  _515
REMARK  207  A    between atoms: _514  and  _517
REMARK  208  A    between atoms: _517  and  _518
REMARK  209  A    between atoms: _520  and  _522
REMARK  210  A    between atoms: _522  and  _523
REMARK  211  A    between atoms: _522  and  _525
REMARK  212  A    between atoms: _525  and  _526
REMARK  213  A    between atoms: _528  and  _530
REMARK  214  A    between atoms: _530  and  _531
REMARK  215  A    between atoms: _530  and  _533
REMARK  216  A    between atoms: _533  and  _534
REMARK  217  A    between atoms: _534  and  _535
REMARK  218  A    between atoms: _535  and  _536
REMARK  219  A    between atoms: _545  and  _547
REMARK  220  A    between atoms: _547  and  _548
REMARK  221  A    between atoms: _547  and  _550
REMARK  222  A    between atoms: _550  and  _551
REMARK  223  A    between atoms: _556  and  _558
REMARK  224  A    between atoms: _558  and  _559
REMARK  225  A    between atoms: _558  and  _561
REMARK  226  A    between atoms: _561  and  _562
REMARK                            x       y       z     vdW  Elec       q    Type
REMARK                         _______ _______ _______ _____ _____    ______ ____
ROOT
ATOM      1  O   HOH     1      20.458   7.344  -0.569  0.00  0.00    +0.000 OA
ENDROOT
TORSDOF 0
REMARK  Name = ../refined-set-2016/3cow/3cow_pocket.pdb
REMARK  226 active torsions:
REMARK  status: ('A' for Active; 'I' for Inactive)
REMARK    1  A    between atoms: _1  and  _3
REMARK    2  A    between atoms: _3  and  _4
REMARK    3  A    between atoms: _3  and  _6
REMARK    4  A    between atoms: _10  and  _11
REMARK    5  A    between atoms: _16  and  _18
REMARK    6  A    between atoms: _18  and  _19
REMARK    7  A    between atoms: _18  and  _21
REMARK    8  A    between atoms: _21  and  _22
REMARK    9  A    between atoms: _25  and  _27
REMARK   10  A    between atoms: _27  and  _28
REMARK   11  A    between atoms: _27  and  _30
REMARK   12  A    between atoms: _30  and  _31
REMARK   13  A    between atoms: _31  and  _32
REMARK   14  A    between atoms: _34  and  _36
REMARK   15  A    between atoms: _36  and  _37
REMARK   16  A    between atoms: _39  and  _41
REMARK   17  A    between atoms: _41  and  _42
REMARK   18  A    between atoms: _45  and  _47
REMARK   19  A    between atoms: _47  and  _48
REMARK   20  A    between atoms: _47  and  _50
REMARK   21  A    between atoms: _50  and  _51
REMARK   22  A    between atoms: _54  and  _56
REMARK   23  A    between atoms: _56  and  _57
REMARK   24  A    between atoms: _56  and  _59
REMARK   25  A    between atoms: _59  and  _60
REMARK   26  A    between atoms: _65  and  _67
REMARK   27  A    between atoms: _67  and  _68
REMARK   28  A    between atoms: _67  and  _70
REMARK   29  A    between atoms: _70  and  _71
REMARK   30  A    between atoms: _71  and  _72
REMARK   31  A    between atoms: _75  and  _77
REMARK   32  A    between atoms: _77  and  _78
REMARK   33  A    between atoms: _80  and  _82
REMARK   34  A    between atoms: _82  and  _83
REMARK   35  A    between atoms: _82  and  _85
REMARK   36  A    between atoms: _85  and  _86
REMARK   37  A    between atoms: _91  and  _93
REMARK   38  A    between atoms: _93  and  _94
REMARK   39  A    between atoms: _93  and  _96
REMARK   40  A    between atoms: _96  and  _97
REMARK   41  A    between atoms: _100  and  _102
REMARK   42  A    between atoms: _102  and  _103
REMARK   43  A    between atoms: _106  and  _108
REMARK   44  A    between atoms: _108  and  _109
REMARK   45  A    between atoms: _108  and  _111
REMARK   46  A    between atoms: _111  and  _112
REMARK   47  A    between atoms: _115  and  _117
REMARK   48  A    between atoms: _117  and  _118
REMARK   49  A    between atoms: _117  and  _120
REMARK   50  A    between atoms: _123  and  _125
REMARK   51  A    between atoms: _125  and  _126
REMARK   52  A    between atoms: _125  and  _128
REMARK   53  A    between atoms: _128  and  _129
REMARK   54  A    between atoms: _131  and  _133
REMARK   55  A    between atoms: _133  and  _134
REMARK   56  A    between atoms: _133  and  _136
REMARK   57  A    between atoms: _136  and  _137
REMARK   58  A    between atoms: _140  and  _142
REMARK   59  A    between atoms: _142  and  _143
REMARK   60  A    between atoms: _142  and  _145
REMARK   61  A    between atoms: _145  and  _146
REMARK   62  A    between atoms: _152  and  _154
REMARK   63  A    between atoms: _154  and  _155
REMARK   64  A    between atoms: _154  and  _157
REMARK   65  A    between atoms: _160  and  _162
REMARK   66  A    between atoms: _162  and  _163
REMARK   67  A    between atoms: _162  and  _165
REMARK   68  A    between atoms: _165  and  _166
REMARK   69  A    between atoms: _171  and  _173
REMARK   70  A    between atoms: _173  and  _174
REMARK   71  A    between atoms: _173  and  _176
REMARK   72  A    between atoms: _176  and  _177
REMARK   73  A    between atoms: _177  and  _178
REMARK   74  A    between atoms: _183  and  _185
REMARK   75  A    between atoms: _185  and  _186
REMARK   76  A    between atoms: _185  and  _188
REMARK   77  A    between atoms: _188  and  _189
REMARK   78  A    between atoms: _195  and  _197
REMARK   79  A    between atoms: _197  and  _198
REMARK   80  A    between atoms: _197  and  _200
REMARK   81  A    between atoms: _200  and  _201
REMARK   82  A    between atoms: _206  and  _207
REMARK   83  A    between atoms: _209  and  _211
REMARK   84  A    between atoms: _211  and  _212
REMARK   85  A    between atoms: _211  and  _214
REMARK   86  A    between atoms: _214  and  _215
REMARK   87  A    between atoms: _220  and  _221
REMARK   88  A    between atoms: _223  and  _225
REMARK   89  A    between atoms: _225  and  _226
REMARK   90  A    between atoms: _225  and  _228
REMARK   91  A    between atoms: _228  and  _229
REMARK   92  A    between atoms: _234  and  _236
REMARK   93  A    between atoms: _236  and  _237
REMARK   94  A    between atoms: _236  and  _239
REMARK   95  A    between atoms: _239  and  _240
REMARK   96  A    between atoms: _246  and  _248
REMARK   97  A    between atoms: _248  and  _249
REMARK   98  A    between atoms: _251  and  _253
REMARK   99  A    between atoms: _253  and  _254
REMARK  100  A    between atoms: _253  and  _256
REMARK  101  A    between atoms: _259  and  _261
REMARK  102  A    between atoms: _261  and  _262
REMARK  103  A    between atoms: _261  and  _264
REMARK  104  A    between atoms: _264  and  _265
REMARK  105  A    between atoms: _268  and  _270
REMARK  106  A    between atoms: _270  and  _271
REMARK  107  A    between atoms: _270  and  _273
REMARK  108  A    between atoms: _273  and  _274
REMARK  109  A    between atoms: _277  and  _279
REMARK  110  A    between atoms: _279  and  _280
REMARK  111  A    between atoms: _279  and  _282
REMARK  112  A    between atoms: _285  and  _287
REMARK  113  A    between atoms: _287  and  _288
REMARK  114  A    between atoms: _287  and  _290
REMARK  115  A    between atoms: _293  and  _295
REMARK  116  A    between atoms: _295  and  _296
REMARK  117  A    between atoms: _295  and  _298
REMARK  118  A    between atoms: _298  and  _299
REMARK  119  A    between atoms: _302  and  _304
REMARK  120  A    between atoms: _304  and  _305
REMARK  121  A    between atoms: _304  and  _307
REMARK  122  A    between atoms: _307  and  _308
REMARK  123  A    between atoms: _311  and  _313
REMARK  124  A    between atoms: _313  and  _314
REMARK  125  A    between atoms: _313  and  _316
REMARK  126  A    between atoms: _316  and  _317
REMARK  127  A    between atoms: _323  and  _325
REMARK  128  A    between atoms: _325  and  _326
REMARK  129  A    between atoms: _325  and  _328
REMARK  130  A    between atoms: _328  and  _329
REMARK  131  A    between atoms: _335  and  _337
REMARK  132  A    between atoms: _337  and  _338
REMARK  133  A    between atoms: _340  and  _342
REMARK  134  A    between atoms: _342  and  _343
REMARK  135  A    between atoms: _342  and  _345
REMARK  136  A    between atoms: _345  and  _346
REMARK  137  A    between atoms: _346  and  _347
REMARK  138  A    between atoms: _350  and  _352
REMARK  139  A    between atoms: _352  and  _353
REMARK  140  A    between atoms: _352  and  _355
REMARK  141  A    between atoms: _355  and  _356
REMARK  142  A    between atoms: _356  and  _357
REMARK  143  A    between atoms: _357  and  _358
REMARK  144  A    between atoms: _358  and  _359
REMARK  145  A    between atoms: _363  and  _365
REMARK  146  A    between atoms: _365  and  _366
REMARK  147  A    between atoms: _365  and  _368
REMARK  148  A    between atoms: _368  and  _369
REMARK  149  A    between atoms: _372  and  _374
REMARK  150  A    between atoms: _374  and  _375
REMARK  151  A    between atoms: _374  and  _377
REMARK  152  A    between atoms: _377  and  _378
REMARK  153  A    between atoms: _383  and  _384
REMARK  154  A    between atoms: _386  and  _388
REMARK  155  A    between atoms: _388  and  _389
REMARK  156  A    between atoms: _388  and  _391
REMARK  157  A    between atoms: _391  and  _392
REMARK  158  A    between atoms: _392  and  _393
REMARK  159  A    between atoms: _398  and  _400
REMARK  160  A    between atoms: _400  and  _401
REMARK  161  A    between atoms: _400  and  _403
REMARK  162  A    between atoms: _403  and  _404
REMARK  163  A    between atoms: _407  and  _409
REMARK  164  A    between atoms: _409  and  _410
REMARK  165  A    between atoms: _409  and  _412
REMARK  166  A    between atoms: _412  and  _413
REMARK  167  A    between atoms: _416  and  _418
REMARK  168  A    between atoms: _418  and  _419
REMARK  169  A    between atoms: _418  and  _421
REMARK  170  A    between atoms: _424  and  _426
REMARK  171  A    between atoms: _426  and  _427
REMARK  172  A    between atoms: _429  and  _431
REMARK  173  A    between atoms: _431  and  _432
REMARK  174  A    between atoms: _431  and  _434
REMARK  175  A    between atoms: _438  and  _439
REMARK  176  A    between atoms: _444  and  _446
REMARK  177  A    between atoms: _446  and  _447
REMARK  178  A    between atoms: _446  and  _449
REMARK  179  A    between atoms: _449  and  _450
REMARK  180  A    between atoms: _453  and  _455
REMARK  181  A    between atoms: _455  and  _456
REMARK  182  A    between atoms: _455  and  _458
REMARK  183  A    between atoms: _461  and  _463
REMARK  184  A    between atoms: _463  and  _464
REMARK  185  A    between atoms: _463  and  _466
REMARK  186  A    between atoms: _466  and  _467
REMARK  187  A    between atoms: _467  and  _468
REMARK  188  A    between atoms: _468  and  _469
REMARK  189  A    between atoms: _478  and  _480
REMARK  190  A    between atoms: _480  and  _481
REMARK  191  A    between atoms: _480  and  _483
REMARK  192  A    between atoms: _483  and  _484
REMARK  193  A    between atoms: _484  and  _485
REMARK  194  A    between atoms: _488  and  _490
REMARK  195  A    between atoms: _490  and  _491
REMARK  196  A    between atoms: _490  and  _493
REMARK  197  A    between atoms: _493  and  _494
REMARK  198  A    between atoms: _497  and  _499
REMARK  199  A    between atoms: _499  and  _500
REMARK  200  A    between atoms: _503  and  _505
REMARK  201  A    between atoms: _505  and  _506
REMARK  202  A    between atoms: _505  and  _508
REMARK  203  A    between atoms: _508  and  _509
REMARK  204  A    between atoms: _509  and  _510
REMARK  205  A    between atoms: _512  and  _514
REMARK  206  A    between atoms: _514  and  _515
REMARK  207  A    between atoms: _514  and  _517
REMARK  208  A    between atoms: _517  and  _518
REMARK  209  A    between atoms: _520  and  _522
REMARK  210  A    between atoms: _522  and  _523
REMARK  211  A    between atoms: _522  and  _525
REMARK  212  A    between atoms: _525  and  _526
REMARK  213  A    between atoms: _528  and  _530
REMARK  214  A    between atoms: _530  and  _531
REMARK  215  A    between atoms: _530  and  _533
REMARK  216  A    between atoms: _533  and  _534
REMARK  217  A    between atoms: _534  and  _535
REMARK  218  A    between atoms: _535  and  _536
REMARK  219  A    between atoms: _545  and  _547
REMARK  220  A    between atoms: _547  and  _548
REMARK  221  A    between atoms: _547  and  _550
REMARK  222  A    between atoms: _550  and  _551
REMARK  223  A    between atoms: _556  and  _558
REMARK  224  A    between atoms: _558  and  _559
REMARK  225  A    between atoms: _558  and  _561
REMARK  226  A    between atoms: _561  and  _562
REMARK                            x       y       z     vdW  Elec       q    Type
REMARK                         _______ _______ _______ _____ _____    ______ ____
ROOT
ATOM      1  O   HOH     1      18.184   4.793  -6.606  0.00  0.00    +0.000 OA
ENDROOT
TORSDOF 0
REMARK  Name = ../refined-set-2016/3cow/3cow_pocket.pdb
REMARK  226 active torsions:
REMARK  status: ('A' for Active; 'I' for Inactive)
REMARK    1  A    between atoms: _1  and  _3
REMARK    2  A    between atoms: _3  and  _4
REMARK    3  A    between atoms: _3  and  _6
REMARK    4  A    between atoms: _10  and  _11
REMARK    5  A    between atoms: _16  and  _18
REMARK    6  A    between atoms: _18  and  _19
REMARK    7  A    between atoms: _18  and  _21
REMARK    8  A    between atoms: _21  and  _22
REMARK    9  A    between atoms: _25  and  _27
REMARK   10  A    between atoms: _27  and  _28
REMARK   11  A    between atoms: _27  and  _30
REMARK   12  A    between atoms: _30  and  _31
REMARK   13  A    between atoms: _31  and  _32
REMARK   14  A    between atoms: _34  and  _36
REMARK   15  A    between atoms: _36  and  _37
REMARK   16  A    between atoms: _39  and  _41
REMARK   17  A    between atoms: _41  and  _42
REMARK   18  A    between atoms: _45  and  _47
REMARK   19  A    between atoms: _47  and  _48
REMARK   20  A    between atoms: _47  and  _50
REMARK   21  A    between atoms: _50  and  _51
REMARK   22  A    between atoms: _54  and  _56
REMARK   23  A    between atoms: _56  and  _57
REMARK   24  A    between atoms: _56  and  _59
REMARK   25  A    between atoms: _59  and  _60
REMARK   26  A    between atoms: _65  and  _67
REMARK   27  A    between atoms: _67  and  _68
REMARK   28  A    between atoms: _67  and  _70
REMARK   29  A    between atoms: _70  and  _71
REMARK   30  A    between atoms: _71  and  _72
REMARK   31  A    between atoms: _75  and  _77
REMARK   32  A    between atoms: _77  and  _78
REMARK   33  A    between atoms: _80  and  _82
REMARK   34  A    between atoms: _82  and  _83
REMARK   35  A    between atoms: _82  and  _85
REMARK   36  A    between atoms: _85  and  _86
REMARK   37  A    between atoms: _91  and  _93
REMARK   38  A    between atoms: _93  and  _94
REMARK   39  A    between atoms: _93  and  _96
REMARK   40  A    between atoms: _96  and  _97
REMARK   41  A    between atoms: _100  and  _102
REMARK   42  A    between atoms: _102  and  _103
REMARK   43  A    between atoms: _106  and  _108
REMARK   44  A    between atoms: _108  and  _109
REMARK   45  A    between atoms: _108  and  _111
REMARK   46  A    between atoms: _111  and  _112
REMARK   47  A    between atoms: _115  and  _117
REMARK   48  A    between atoms: _117  and  _118
REMARK   49  A    between atoms: _117  and  _120
REMARK   50  A    between atoms: _123  and  _125
REMARK   51  A    between atoms: _125  and  _126
REMARK   52  A    between atoms: _125  and  _128
REMARK   53  A    between atoms: _128  and  _129
REMARK   54  A    between atoms: _131  and  _133
REMARK   55  A    between atoms: _133  and  _134
REMARK   56  A    between atoms: _133  and  _136
REMARK   57  A    between atoms: _136  and  _137
REMARK   58  A    between atoms: _140  and  _142
REMARK   59  A    between atoms: _142  and  _143
REMARK   60  A    between atoms: _142  and  _145
REMARK   61  A    between atoms: _145  and  _146
REMARK   62  A    between atoms: _152  and  _154
REMARK   63  A    between atoms: _154  and  _155
REMARK   64  A    between atoms: _154  and  _157
REMARK   65  A    between atoms: _160  and  _162
REMARK   66  A    between atoms: _162  and  _163
REMARK   67  A    between atoms: _162  and  _165
REMARK   68  A    between atoms: _165  and  _166
REMARK   69  A    between atoms: _171  and  _173
REMARK   70  A    between atoms: _173  and  _174
REMARK   71  A    between atoms: _173  and  _176
REMARK   72  A    between atoms: _176  and  _177
REMARK   73  A    between atoms: _177  and  _178
REMARK   74  A    between atoms: _183  and  _185
REMARK   75  A    between atoms: _185  and  _186
REMARK   76  A    between atoms: _185  and  _188
REMARK   77  A    between atoms: _188  and  _189
REMARK   78  A    between atoms: _195  and  _197
REMARK   79  A    between atoms: _197  and  _198
REMARK   80  A    between atoms: _197  and  _200
REMARK   81  A    between atoms: _200  and  _201
REMARK   82  A    between atoms: _206  and  _207
REMARK   83  A    between atoms: _209  and  _211
REMARK   84  A    between atoms: _211  and  _212
REMARK   85  A    between atoms: _211  and  _214
REMARK   86  A    between atoms: _214  and  _215
REMARK   87  A    between atoms: _220  and  _221
REMARK   88  A    between atoms: _223  and  _225
REMARK   89  A    between atoms: _225  and  _226
REMARK   90  A    between atoms: _225  and  _228
REMARK   91  A    between atoms: _228  and  _229
REMARK   92  A    between atoms: _234  and  _236
REMARK   93  A    between atoms: _236  and  _237
REMARK   94  A    between atoms: _236  and  _239
REMARK   95  A    between atoms: _239  and  _240
REMARK   96  A    between atoms: _246  and  _248
REMARK   97  A    between atoms: _248  and  _249
REMARK   98  A    between atoms: _251  and  _253
REMARK   99  A    between atoms: _253  and  _254
REMARK  100  A    between atoms: _253  and  _256
REMARK  101  A    between atoms: _259  and  _261
REMARK  102  A    between atoms: _261  and  _262
REMARK  103  A    between atoms: _261  and  _264
REMARK  104  A    between atoms: _264  and  _265
REMARK  105  A    between atoms: _268  and  _270
REMARK  106  A    between atoms: _270  and  _271
REMARK  107  A    between atoms: _270  and  _273
REMARK  108  A    between atoms: _273  and  _274
REMARK  109  A    between atoms: _277  and  _279
REMARK  110  A    between atoms: _279  and  _280
REMARK  111  A    between atoms: _279  and  _282
REMARK  112  A    between atoms: _285  and  _287
REMARK  113  A    between atoms: _287  and  _288
REMARK  114  A    between atoms: _287  and  _290
REMARK  115  A    between atoms: _293  and  _295
REMARK  116  A    between atoms: _295  and  _296
REMARK  117  A    between atoms: _295  and  _298
REMARK  118  A    between atoms: _298  and  _299
REMARK  119  A    between atoms: _302  and  _304
REMARK  120  A    between atoms: _304  and  _305
REMARK  121  A    between atoms: _304  and  _307
REMARK  122  A    between atoms: _307  and  _308
REMARK  123  A    between atoms: _311  and  _313
REMARK  124  A    between atoms: _313  and  _314
REMARK  125  A    between atoms: _313  and  _316
REMARK  126  A    between atoms: _316  and  _317
REMARK  127  A    between atoms: _323  and  _325
REMARK  128  A    between atoms: _325  and  _326
REMARK  129  A    between atoms: _325  and  _328
REMARK  130  A    between atoms: _328  and  _329
REMARK  131  A    between atoms: _335  and  _337
REMARK  132  A    between atoms: _337  and  _338
REMARK  133  A    between atoms: _340  and  _342
REMARK  134  A    between atoms: _342  and  _343
REMARK  135  A    between atoms: _342  and  _345
REMARK  136  A    between atoms: _345  and  _346
REMARK  137  A    between atoms: _346  and  _347
REMARK  138  A    between atoms: _350  and  _352
REMARK  139  A    between atoms: _352  and  _353
REMARK  140  A    between atoms: _352  and  _355
REMARK  141  A    between atoms: _355  and  _356
REMARK  142  A    between atoms: _356  and  _357
REMARK  143  A    between atoms: _357  and  _358
REMARK  144  A    between atoms: _358  and  _359
REMARK  145  A    between atoms: _363  and  _365
REMARK  146  A    between atoms: _365  and  _366
REMARK  147  A    between atoms: _365  and  _368
REMARK  148  A    between atoms: _368  and  _369
REMARK  149  A    between atoms: _372  and  _374
REMARK  150  A    between atoms: _374  and  _375
REMARK  151  A    between atoms: _374  and  _377
REMARK  152  A    between atoms: _377  and  _378
REMARK  153  A    between atoms: _383  and  _384
REMARK  154  A    between atoms: _386  and  _388
REMARK  155  A    between atoms: _388  and  _389
REMARK  156  A    between atoms: _388  and  _391
REMARK  157  A    between atoms: _391  and  _392
REMARK  158  A    between atoms: _392  and  _393
REMARK  159  A    between atoms: _398  and  _400
REMARK  160  A    between atoms: _400  and  _401
REMARK  161  A    between atoms: _400  and  _403
REMARK  162  A    between atoms: _403  and  _404
REMARK  163  A    between atoms: _407  and  _409
REMARK  164  A    between atoms: _409  and  _410
REMARK  165  A    between atoms: _409  and  _412
REMARK  166  A    between atoms: _412  and  _413
REMARK  167  A    between atoms: _416  and  _418
REMARK  168  A    between atoms: _418  and  _419
REMARK  169  A    between atoms: _418  and  _421
REMARK  170  A    between atoms: _424  and  _426
REMARK  171  A    between atoms: _426  and  _427
REMARK  172  A    between atoms: _429  and  _431
REMARK  173  A    between atoms: _431  and  _432
REMARK  174  A    between atoms: _431  and  _434
REMARK  175  A    between atoms: _438  and  _439
REMARK  176  A    between atoms: _444  and  _446
REMARK  177  A    between atoms: _446  and  _447
REMARK  178  A    between atoms: _446  and  _449
REMARK  179  A    between atoms: _449  and  _450
REMARK  180  A    between atoms: _453  and  _455
REMARK  181  A    between atoms: _455  and  _456
REMARK  182  A    between atoms: _455  and  _458
REMARK  183  A    between atoms: _461  and  _463
REMARK  184  A    between atoms: _463  and  _464
REMARK  185  A    between atoms: _463  and  _466
REMARK  186  A    between atoms: _466  and  _467
REMARK  187  A    between atoms: _467  and  _468
REMARK  188  A    between atoms: _468  and  _469
REMARK  189  A    between atoms: _478  and  _480
REMARK  190  A    between atoms: _480  and  _481
REMARK  191  A    between atoms: _480  and  _483
REMARK  192  A    between atoms: _483  and  _484
REMARK  193  A    between atoms: _484  and  _485
REMARK  194  A    between atoms: _488  and  _490
REMARK  195  A    between atoms: _490  and  _491
REMARK  196  A    between atoms: _490  and  _493
REMARK  197  A    between atoms: _493  and  _494
REMARK  198  A    between atoms: _497  and  _499
REMARK  199  A    between atoms: _499  and  _500
REMARK  200  A    between atoms: _503  and  _505
REMARK  201  A    between atoms: _505  and  _506
REMARK  202  A    between atoms: _505  and  _508
REMARK  203  A    between atoms: _508  and  _509
REMARK  204  A    between atoms: _509  and  _510
REMARK  205  A    between atoms: _512  and  _514
REMARK  206  A    between atoms: _514  and  _515
REMARK  207  A    between atoms: _514  and  _517
REMARK  208  A    between atoms: _517  and  _518
REMARK  209  A    between atoms: _520  and  _522
REMARK  210  A    between atoms: _522  and  _523
REMARK  211  A    between atoms: _522  and  _525
REMARK  212  A    between atoms: _525  and  _526
REMARK  213  A    between atoms: _528  and  _530
REMARK  214  A    between atoms: _530  and  _531
REMARK  215  A    between atoms: _530  and  _533
REMARK  216  A    between atoms: _533  and  _534
REMARK  217  A    between atoms: _534  and  _535
REMARK  218  A    between atoms: _535  and  _536
REMARK  219  A    between atoms: _545  and  _547
REMARK  220  A    between atoms: _547  and  _548
REMARK  221  A    between atoms: _547  and  _550
REMARK  222  A    between atoms: _550  and  _551
REMARK  223  A    between atoms: _556  and  _558
REMARK  224  A    between atoms: _558  and  _559
REMARK  225  A    between atoms: _558  and  _561
REMARK  226  A    between atoms: _561  and  _562
REMARK                            x       y       z     vdW  Elec       q    Type
REMARK                         _______ _______ _______ _____ _____    ______ ____
ROOT
ATOM      1  O   HOH     1      20.239  15.495  -6.929  0.00  0.00    +0.000 OA
ENDROOT
TORSDOF 0
REMARK  Name = ../refined-set-2016/3cow/3cow_pocket.pdb
REMARK  226 active torsions:
REMARK  status: ('A' for Active; 'I' for Inactive)
REMARK    1  A    between atoms: _1  and  _3
REMARK    2  A    between atoms: _3  and  _4
REMARK    3  A    between atoms: _3  and  _6
REMARK    4  A    between atoms: _10  and  _11
REMARK    5  A    between atoms: _16  and  _18
REMARK    6  A    between atoms: _18  and  _19
REMARK    7  A    between atoms: _18  and  _21
REMARK    8  A    between atoms: _21  and  _22
REMARK    9  A    between atoms: _25  and  _27
REMARK   10  A    between atoms: _27  and  _28
REMARK   11  A    between atoms: _27  and  _30
REMARK   12  A    between atoms: _30  and  _31
REMARK   13  A    between atoms: _31  and  _32
REMARK   14  A    between atoms: _34  and  _36
REMARK   15  A    between atoms: _36  and  _37
REMARK   16  A    between atoms: _39  and  _41
REMARK   17  A    between atoms: _41  and  _42
REMARK   18  A    between atoms: _45  and  _47
REMARK   19  A    between atoms: _47  and  _48
REMARK   20  A    between atoms: _47  and  _50
REMARK   21  A    between atoms: _50  and  _51
REMARK   22  A    between atoms: _54  and  _56
REMARK   23  A    between atoms: _56  and  _57
REMARK   24  A    between atoms: _56  and  _59
REMARK   25  A    between atoms: _59  and  _60
REMARK   26  A    between atoms: _65  and  _67
REMARK   27  A    between atoms: _67  and  _68
REMARK   28  A    between atoms: _67  and  _70
REMARK   29  A    between atoms: _70  and  _71
REMARK   30  A    between atoms: _71  and  _72
REMARK   31  A    between atoms: _75  and  _77
REMARK   32  A    between atoms: _77  and  _78
REMARK   33  A    between atoms: _80  and  _82
REMARK   34  A    between atoms: _82  and  _83
REMARK   35  A    between atoms: _82  and  _85
REMARK   36  A    between atoms: _85  and  _86
REMARK   37  A    between atoms: _91  and  _93
REMARK   38  A    between atoms: _93  and  _94
REMARK   39  A    between atoms: _93  and  _96
REMARK   40  A    between atoms: _96  and  _97
REMARK   41  A    between atoms: _100  and  _102
REMARK   42  A    between atoms: _102  and  _103
REMARK   43  A    between atoms: _106  and  _108
REMARK   44  A    between atoms: _108  and  _109
REMARK   45  A    between atoms: _108  and  _111
REMARK   46  A    between atoms: _111  and  _112
REMARK   47  A    between atoms: _115  and  _117
REMARK   48  A    between atoms: _117  and  _118
REMARK   49  A    between atoms: _117  and  _120
REMARK   50  A    between atoms: _123  and  _125
REMARK   51  A    between atoms: _125  and  _126
REMARK   52  A    between atoms: _125  and  _128
REMARK   53  A    between atoms: _128  and  _129
REMARK   54  A    between atoms: _131  and  _133
REMARK   55  A    between atoms: _133  and  _134
REMARK   56  A    between atoms: _133  and  _136
REMARK   57  A    between atoms: _136  and  _137
REMARK   58  A    between atoms: _140  and  _142
REMARK   59  A    between atoms: _142  and  _143
REMARK   60  A    between atoms: _142  and  _145
REMARK   61  A    between atoms: _145  and  _146
REMARK   62  A    between atoms: _152  and  _154
REMARK   63  A    between atoms: _154  and  _155
REMARK   64  A    between atoms: _154  and  _157
REMARK   65  A    between atoms: _160  and  _162
REMARK   66  A    between atoms: _162  and  _163
REMARK   67  A    between atoms: _162  and  _165
REMARK   68  A    between atoms: _165  and  _166
REMARK   69  A    between atoms: _171  and  _173
REMARK   70  A    between atoms: _173  and  _174
REMARK   71  A    between atoms: _173  and  _176
REMARK   72  A    between atoms: _176  and  _177
REMARK   73  A    between atoms: _177  and  _178
REMARK   74  A    between atoms: _183  and  _185
REMARK   75  A    between atoms: _185  and  _186
REMARK   76  A    between atoms: _185  and  _188
REMARK   77  A    between atoms: _188  and  _189
REMARK   78  A    between atoms: _195  and  _197
REMARK   79  A    between atoms: _197  and  _198
REMARK   80  A    between atoms: _197  and  _200
REMARK   81  A    between atoms: _200  and  _201
REMARK   82  A    between atoms: _206  and  _207
REMARK   83  A    between atoms: _209  and  _211
REMARK   84  A    between atoms: _211  and  _212
REMARK   85  A    between atoms: _211  and  _214
REMARK   86  A    between atoms: _214  and  _215
REMARK   87  A    between atoms: _220  and  _221
REMARK   88  A    between atoms: _223  and  _225
REMARK   89  A    between atoms: _225  and  _226
REMARK   90  A    between atoms: _225  and  _228
REMARK   91  A    between atoms: _228  and  _229
REMARK   92  A    between atoms: _234  and  _236
REMARK   93  A    between atoms: _236  and  _237
REMARK   94  A    between atoms: _236  and  _239
REMARK   95  A    between atoms: _239  and  _240
REMARK   96  A    between atoms: _246  and  _248
REMARK   97  A    between atoms: _248  and  _249
REMARK   98  A    between atoms: _251  and  _253
REMARK   99  A    between atoms: _253  and  _254
REMARK  100  A    between atoms: _253  and  _256
REMARK  101  A    between atoms: _259  and  _261
REMARK  102  A    between atoms: _261  and  _262
REMARK  103  A    between atoms: _261  and  _264
REMARK  104  A    between atoms: _264  and  _265
REMARK  105  A    between atoms: _268  and  _270
REMARK  106  A    between atoms: _270  and  _271
REMARK  107  A    between atoms: _270  and  _273
REMARK  108  A    between atoms: _273  and  _274
REMARK  109  A    between atoms: _277  and  _279
REMARK  110  A    between atoms: _279  and  _280
REMARK  111  A    between atoms: _279  and  _282
REMARK  112  A    between atoms: _285  and  _287
REMARK  113  A    between atoms: _287  and  _288
REMARK  114  A    between atoms: _287  and  _290
REMARK  115  A    between atoms: _293  and  _295
REMARK  116  A    between atoms: _295  and  _296
REMARK  117  A    between atoms: _295  and  _298
REMARK  118  A    between atoms: _298  and  _299
REMARK  119  A    between atoms: _302  and  _304
REMARK  120  A    between atoms: _304  and  _305
REMARK  121  A    between atoms: _304  and  _307
REMARK  122  A    between atoms: _307  and  _308
REMARK  123  A    between atoms: _311  and  _313
REMARK  124  A    between atoms: _313  and  _314
REMARK  125  A    between atoms: _313  and  _316
REMARK  126  A    between atoms: _316  and  _317
REMARK  127  A    between atoms: _323  and  _325
REMARK  128  A    between atoms: _325  and  _326
REMARK  129  A    between atoms: _325  and  _328
REMARK  130  A    between atoms: _328  and  _329
REMARK  131  A    between atoms: _335  and  _337
REMARK  132  A    between atoms: _337  and  _338
REMARK  133  A    between atoms: _340  and  _342
REMARK  134  A    between atoms: _342  and  _343
REMARK  135  A    between atoms: _342  and  _345
REMARK  136  A    between atoms: _345  and  _346
REMARK  137  A    between atoms: _346  and  _347
REMARK  138  A    between atoms: _350  and  _352
REMARK  139  A    between atoms: _352  and  _353
REMARK  140  A    between atoms: _352  and  _355
REMARK  141  A    between atoms: _355  and  _356
REMARK  142  A    between atoms: _356  and  _357
REMARK  143  A    between atoms: _357  and  _358
REMARK  144  A    between atoms: _358  and  _359
REMARK  145  A    between atoms: _363  and  _365
REMARK  146  A    between atoms: _365  and  _366
REMARK  147  A    between atoms: _365  and  _368
REMARK  148  A    between atoms: _368  and  _369
REMARK  149  A    between atoms: _372  and  _374
REMARK  150  A    between atoms: _374  and  _375
REMARK  151  A    between atoms: _374  and  _377
REMARK  152  A    between atoms: _377  and  _378
REMARK  153  A    between atoms: _383  and  _384
REMARK  154  A    between atoms: _386  and  _388
REMARK  155  A    between atoms: _388  and  _389
REMARK  156  A    between atoms: _388  and  _391
REMARK  157  A    between atoms: _391  and  _392
REMARK  158  A    between atoms: _392  and  _393
REMARK  159  A    between atoms: _398  and  _400
REMARK  160  A    between atoms: _400  and  _401
REMARK  161  A    between atoms: _400  and  _403
REMARK  162  A    between atoms: _403  and  _404
REMARK  163  A    between atoms: _407  and  _409
REMARK  164  A    between atoms: _409  and  _410
REMARK  165  A    between atoms: _409  and  _412
REMARK  166  A    between atoms: _412  and  _413
REMARK  167  A    between atoms: _416  and  _418
REMARK  168  A    between atoms: _418  and  _419
REMARK  169  A    between atoms: _418  and  _421
REMARK  170  A    between atoms: _424  and  _426
REMARK  171  A    between atoms: _426  and  _427
REMARK  172  A    between atoms: _429  and  _431
REMARK  173  A    between atoms: _431  and  _432
REMARK  174  A    between atoms: _431  and  _434
REMARK  175  A    between atoms: _438  and  _439
REMARK  176  A    between atoms: _444  and  _446
REMARK  177  A    between atoms: _446  and  _447
REMARK  178  A    between atoms: _446  and  _449
REMARK  179  A    between atoms: _449  and  _450
REMARK  180  A    between atoms: _453  and  _455
REMARK  181  A    between atoms: _455  and  _456
REMARK  182  A    between atoms: _455  and  _458
REMARK  183  A    between atoms: _461  and  _463
REMARK  184  A    between atoms: _463  and  _464
REMARK  185  A    between atoms: _463  and  _466
REMARK  186  A    between atoms: _466  and  _467
REMARK  187  A    between atoms: _467  and  _468
REMARK  188  A    between atoms: _468  and  _469
REMARK  189  A    between atoms: _478  and  _480
REMARK  190  A    between atoms: _480  and  _481
REMARK  191  A    between atoms: _480  and  _483
REMARK  192  A    between atoms: _483  and  _484
REMARK  193  A    between atoms: _484  and  _485
REMARK  194  A    between atoms: _488  and  _490
REMARK  195  A    between atoms: _490  and  _491
REMARK  196  A    between atoms: _490  and  _493
REMARK  197  A    between atoms: _493  and  _494
REMARK  198  A    between atoms: _497  and  _499
REMARK  199  A    between atoms: _499  and  _500
REMARK  200  A    between atoms: _503  and  _505
REMARK  201  A    between atoms: _505  and  _506
REMARK  202  A    between atoms: _505  and  _508
REMARK  203  A    between atoms: _508  and  _509
REMARK  204  A    between atoms: _509  and  _510
REMARK  205  A    between atoms: _512  and  _514
REMARK  206  A    between atoms: _514  and  _515
REMARK  207  A    between atoms: _514  and  _517
REMARK  208  A    between atoms: _517  and  _518
REMARK  209  A    between atoms: _520  and  _522
REMARK  210  A    between atoms: _522  and  _523
REMARK  211  A    between atoms: _522  and  _525
REMARK  212  A    between atoms: _525  and  _526
REMARK  213  A    between atoms: _528  and  _530
REMARK  214  A    between atoms: _530  and  _531
REMARK  215  A    between atoms: _530  and  _533
REMARK  216  A    between atoms: _533  and  _534
REMARK  217  A    between atoms: _534  and  _535
REMARK  218  A    between atoms: _535  and  _536
REMARK  219  A    between atoms: _545  and  _547
REMARK  220  A    between atoms: _547  and  _548
REMARK  221  A    between atoms: _547  and  _550
REMARK  222  A    between atoms: _550  and  _551
REMARK  223  A    between atoms: _556  and  _558
REMARK  224  A    between atoms: _558  and  _559
REMARK  225  A    between atoms: _558  and  _561
REMARK  226  A    between atoms: _561  and  _562
REMARK                            x       y       z     vdW  Elec       q    Type
REMARK                         _______ _______ _______ _____ _____    ______ ____
ROOT
ATOM      1  O   HOH     1      22.510   4.634   3.624  0.00  0.00    +0.000 OA
ENDROOT
TORSDOF 0
REMARK  Name = ../refined-set-2016/3cow/3cow_pocket.pdb
REMARK  226 active torsions:
REMARK  status: ('A' for Active; 'I' for Inactive)
REMARK    1  A    between atoms: _1  and  _3
REMARK    2  A    between atoms: _3  and  _4
REMARK    3  A    between atoms: _3  and  _6
REMARK    4  A    between atoms: _10  and  _11
REMARK    5  A    between atoms: _16  and  _18
REMARK    6  A    between atoms: _18  and  _19
REMARK    7  A    between atoms: _18  and  _21
REMARK    8  A    between atoms: _21  and  _22
REMARK    9  A    between atoms: _25  and  _27
REMARK   10  A    between atoms: _27  and  _28
REMARK   11  A    between atoms: _27  and  _30
REMARK   12  A    between atoms: _30  and  _31
REMARK   13  A    between atoms: _31  and  _32
REMARK   14  A    between atoms: _34  and  _36
REMARK   15  A    between atoms: _36  and  _37
REMARK   16  A    between atoms: _39  and  _41
REMARK   17  A    between atoms: _41  and  _42
REMARK   18  A    between atoms: _45  and  _47
REMARK   19  A    between atoms: _47  and  _48
REMARK   20  A    between atoms: _47  and  _50
REMARK   21  A    between atoms: _50  and  _51
REMARK   22  A    between atoms: _54  and  _56
REMARK   23  A    between atoms: _56  and  _57
REMARK   24  A    between atoms: _56  and  _59
REMARK   25  A    between atoms: _59  and  _60
REMARK   26  A    between atoms: _65  and  _67
REMARK   27  A    between atoms: _67  and  _68
REMARK   28  A    between atoms: _67  and  _70
REMARK   29  A    between atoms: _70  and  _71
REMARK   30  A    between atoms: _71  and  _72
REMARK   31  A    between atoms: _75  and  _77
REMARK   32  A    between atoms: _77  and  _78
REMARK   33  A    between atoms: _80  and  _82
REMARK   34  A    between atoms: _82  and  _83
REMARK   35  A    between atoms: _82  and  _85
REMARK   36  A    between atoms: _85  and  _86
REMARK   37  A    between atoms: _91  and  _93
REMARK   38  A    between atoms: _93  and  _94
REMARK   39  A    between atoms: _93  and  _96
REMARK   40  A    between atoms: _96  and  _97
REMARK   41  A    between atoms: _100  and  _102
REMARK   42  A    between atoms: _102  and  _103
REMARK   43  A    between atoms: _106  and  _108
REMARK   44  A    between atoms: _108  and  _109
REMARK   45  A    between atoms: _108  and  _111
REMARK   46  A    between atoms: _111  and  _112
REMARK   47  A    between atoms: _115  and  _117
REMARK   48  A    between atoms: _117  and  _118
REMARK   49  A    between atoms: _117  and  _120
REMARK   50  A    between atoms: _123  and  _125
REMARK   51  A    between atoms: _125  and  _126
REMARK   52  A    between atoms: _125  and  _128
REMARK   53  A    between atoms: _128  and  _129
REMARK   54  A    between atoms: _131  and  _133
REMARK   55  A    between atoms: _133  and  _134
REMARK   56  A    between atoms: _133  and  _136
REMARK   57  A    between atoms: _136  and  _137
REMARK   58  A    between atoms: _140  and  _142
REMARK   59  A    between atoms: _142  and  _143
REMARK   60  A    between atoms: _142  and  _145
REMARK   61  A    between atoms: _145  and  _146
REMARK   62  A    between atoms: _152  and  _154
REMARK   63  A    between atoms: _154  and  _155
REMARK   64  A    between atoms: _154  and  _157
REMARK   65  A    between atoms: _160  and  _162
REMARK   66  A    between atoms: _162  and  _163
REMARK   67  A    between atoms: _162  and  _165
REMARK   68  A    between atoms: _165  and  _166
REMARK   69  A    between atoms: _171  and  _173
REMARK   70  A    between atoms: _173  and  _174
REMARK   71  A    between atoms: _173  and  _176
REMARK   72  A    between atoms: _176  and  _177
REMARK   73  A    between atoms: _177  and  _178
REMARK   74  A    between atoms: _183  and  _185
REMARK   75  A    between atoms: _185  and  _186
REMARK   76  A    between atoms: _185  and  _188
REMARK   77  A    between atoms: _188  and  _189
REMARK   78  A    between atoms: _195  and  _197
REMARK   79  A    between atoms: _197  and  _198
REMARK   80  A    between atoms: _197  and  _200
REMARK   81  A    between atoms: _200  and  _201
REMARK   82  A    between atoms: _206  and  _207
REMARK   83  A    between atoms: _209  and  _211
REMARK   84  A    between atoms: _211  and  _212
REMARK   85  A    between atoms: _211  and  _214
REMARK   86  A    between atoms: _214  and  _215
REMARK   87  A    between atoms: _220  and  _221
REMARK   88  A    between atoms: _223  and  _225
REMARK   89  A    between atoms: _225  and  _226
REMARK   90  A    between atoms: _225  and  _228
REMARK   91  A    between atoms: _228  and  _229
REMARK   92  A    between atoms: _234  and  _236
REMARK   93  A    between atoms: _236  and  _237
REMARK   94  A    between atoms: _236  and  _239
REMARK   95  A    between atoms: _239  and  _240
REMARK   96  A    between atoms: _246  and  _248
REMARK   97  A    between atoms: _248  and  _249
REMARK   98  A    between atoms: _251  and  _253
REMARK   99  A    between atoms: _253  and  _254
REMARK  100  A    between atoms: _253  and  _256
REMARK  101  A    between atoms: _259  and  _261
REMARK  102  A    between atoms: _261  and  _262
REMARK  103  A    between atoms: _261  and  _264
REMARK  104  A    between atoms: _264  and  _265
REMARK  105  A    between atoms: _268  and  _270
REMARK  106  A    between atoms: _270  and  _271
REMARK  107  A    between atoms: _270  and  _273
REMARK  108  A    between atoms: _273  and  _274
REMARK  109  A    between atoms: _277  and  _279
REMARK  110  A    between atoms: _279  and  _280
REMARK  111  A    between atoms: _279  and  _282
REMARK  112  A    between atoms: _285  and  _287
REMARK  113  A    between atoms: _287  and  _288
REMARK  114  A    between atoms: _287  and  _290
REMARK  115  A    between atoms: _293  and  _295
REMARK  116  A    between atoms: _295  and  _296
REMARK  117  A    between atoms: _295  and  _298
REMARK  118  A    between atoms: _298  and  _299
REMARK  119  A    between atoms: _302  and  _304
REMARK  120  A    between atoms: _304  and  _305
REMARK  121  A    between atoms: _304  and  _307
REMARK  122  A    between atoms: _307  and  _308
REMARK  123  A    between atoms: _311  and  _313
REMARK  124  A    between atoms: _313  and  _314
REMARK  125  A    between atoms: _313  and  _316
REMARK  126  A    between atoms: _316  and  _317
REMARK  127  A    between atoms: _323  and  _325
REMARK  128  A    between atoms: _325  and  _326
REMARK  129  A    between atoms: _325  and  _328
REMARK  130  A    between atoms: _328  and  _329
REMARK  131  A    between atoms: _335  and  _337
REMARK  132  A    between atoms: _337  and  _338
REMARK  133  A    between atoms: _340  and  _342
REMARK  134  A    between atoms: _342  and  _343
REMARK  135  A    between atoms: _342  and  _345
REMARK  136  A    between atoms: _345  and  _346
REMARK  137  A    between atoms: _346  and  _347
REMARK  138  A    between atoms: _350  and  _352
REMARK  139  A    between atoms: _352  and  _353
REMARK  140  A    between atoms: _352  and  _355
REMARK  141  A    between atoms: _355  and  _356
REMARK  142  A    between atoms: _356  and  _357
REMARK  143  A    between atoms: _357  and  _358
REMARK  144  A    between atoms: _358  and  _359
REMARK  145  A    between atoms: _363  and  _365
REMARK  146  A    between atoms: _365  and  _366
REMARK  147  A    between atoms: _365  and  _368
REMARK  148  A    between atoms: _368  and  _369
REMARK  149  A    between atoms: _372  and  _374
REMARK  150  A    between atoms: _374  and  _375
REMARK  151  A    between atoms: _374  and  _377
REMARK  152  A    between atoms: _377  and  _378
REMARK  153  A    between atoms: _383  and  _384
REMARK  154  A    between atoms: _386  and  _388
REMARK  155  A    between atoms: _388  and  _389
REMARK  156  A    between atoms: _388  and  _391
REMARK  157  A    between atoms: _391  and  _392
REMARK  158  A    between atoms: _392  and  _393
REMARK  159  A    between atoms: _398  and  _400
REMARK  160  A    between atoms: _400  and  _401
REMARK  161  A    between atoms: _400  and  _403
REMARK  162  A    between atoms: _403  and  _404
REMARK  163  A    between atoms: _407  and  _409
REMARK  164  A    between atoms: _409  and  _410
REMARK  165  A    between atoms: _409  and  _412
REMARK  166  A    between atoms: _412  and  _413
REMARK  167  A    between atoms: _416  and  _418
REMARK  168  A    between atoms: _418  and  _419
REMARK  169  A    between atoms: _418  and  _421
REMARK  170  A    between atoms: _424  and  _426
REMARK  171  A    between atoms: _426  and  _427
REMARK  172  A    between atoms: _429  and  _431
REMARK  173  A    between atoms: _431  and  _432
REMARK  174  A    between atoms: _431  and  _434
REMARK  175  A    between atoms: _438  and  _439
REMARK  176  A    between atoms: _444  and  _446
REMARK  177  A    between atoms: _446  and  _447
REMARK  178  A    between atoms: _446  and  _449
REMARK  179  A    between atoms: _449  and  _450
REMARK  180  A    between atoms: _453  and  _455
REMARK  181  A    between atoms: _455  and  _456
REMARK  182  A    between atoms: _455  and  _458
REMARK  183  A    between atoms: _461  and  _463
REMARK  184  A    between atoms: _463  and  _464
REMARK  185  A    between atoms: _463  and  _466
REMARK  186  A    between atoms: _466  and  _467
REMARK  187  A    between atoms: _467  and  _468
REMARK  188  A    between atoms: _468  and  _469
REMARK  189  A    between atoms: _478  and  _480
REMARK  190  A    between atoms: _480  and  _481
REMARK  191  A    between atoms: _480  and  _483
REMARK  192  A    between atoms: _483  and  _484
REMARK  193  A    between atoms: _484  and  _485
REMARK  194  A    between atoms: _488  and  _490
REMARK  195  A    between atoms: _490  and  _491
REMARK  196  A    between atoms: _490  and  _493
REMARK  197  A    between atoms: _493  and  _494
REMARK  198  A    between atoms: _497  and  _499
REMARK  199  A    between atoms: _499  and  _500
REMARK  200  A    between atoms: _503  and  _505
REMARK  201  A    between atoms: _505  and  _506
REMARK  202  A    between atoms: _505  and  _508
REMARK  203  A    between atoms: _508  and  _509
REMARK  204  A    between atoms: _509  and  _510
REMARK  205  A    between atoms: _512  and  _514
REMARK  206  A    between atoms: _514  and  _515
REMARK  207  A    between atoms: _514  and  _517
REMARK  208  A    between atoms: _517  and  _518
REMARK  209  A    between atoms: _520  and  _522
REMARK  210  A    between atoms: _522  and  _523
REMARK  211  A    between atoms: _522  and  _525
REMARK  212  A    between atoms: _525  and  _526
REMARK  213  A    between atoms: _528  and  _530
REMARK  214  A    between atoms: _530  and  _531
REMARK  215  A    between atoms: _530  and  _533
REMARK  216  A    between atoms: _533  and  _534
REMARK  217  A    between atoms: _534  and  _535
REMARK  218  A    between atoms: _535  and  _536
REMARK  219  A    between atoms: _545  and  _547
REMARK  220  A    between atoms: _547  and  _548
REMARK  221  A    between atoms: _547  and  _550
REMARK  222  A    between atoms: _550  and  _551
REMARK  223  A    between atoms: _556  and  _558
REMARK  224  A    between atoms: _558  and  _559
REMARK  225  A    between atoms: _558  and  _561
REMARK  226  A    between atoms: _561  and  _562
REMARK                            x       y       z     vdW  Elec       q    Type
REMARK                         _______ _______ _______ _____ _____    ______ ____
ROOT
ATOM      1  O   HOH     1      18.816   8.500   3.337  0.00  0.00    +0.000 OA
ENDROOT
TORSDOF 0
REMARK  Name = ../refined-set-2016/3cow/3cow_pocket.pdb
REMARK  226 active torsions:
REMARK  status: ('A' for Active; 'I' for Inactive)
REMARK    1  A    between atoms: _1  and  _3
REMARK    2  A    between atoms: _3  and  _4
REMARK    3  A    between atoms: _3  and  _6
REMARK    4  A    between atoms: _10  and  _11
REMARK    5  A    between atoms: _16  and  _18
REMARK    6  A    between atoms: _18  and  _19
REMARK    7  A    between atoms: _18  and  _21
REMARK    8  A    between atoms: _21  and  _22
REMARK    9  A    between atoms: _25  and  _27
REMARK   10  A    between atoms: _27  and  _28
REMARK   11  A    between atoms: _27  and  _30
REMARK   12  A    between atoms: _30  and  _31
REMARK   13  A    between atoms: _31  and  _32
REMARK   14  A    between atoms: _34  and  _36
REMARK   15  A    between atoms: _36  and  _37
REMARK   16  A    between atoms: _39  and  _41
REMARK   17  A    between atoms: _41  and  _42
REMARK   18  A    between atoms: _45  and  _47
REMARK   19  A    between atoms: _47  and  _48
REMARK   20  A    between atoms: _47  and  _50
REMARK   21  A    between atoms: _50  and  _51
REMARK   22  A    between atoms: _54  and  _56
REMARK   23  A    between atoms: _56  and  _57
REMARK   24  A    between atoms: _56  and  _59
REMARK   25  A    between atoms: _59  and  _60
REMARK   26  A    between atoms: _65  and  _67
REMARK   27  A    between atoms: _67  and  _68
REMARK   28  A    between atoms: _67  and  _70
REMARK   29  A    between atoms: _70  and  _71
REMARK   30  A    between atoms: _71  and  _72
REMARK   31  A    between atoms: _75  and  _77
REMARK   32  A    between atoms: _77  and  _78
REMARK   33  A    between atoms: _80  and  _82
REMARK   34  A    between atoms: _82  and  _83
REMARK   35  A    between atoms: _82  and  _85
REMARK   36  A    between atoms: _85  and  _86
REMARK   37  A    between atoms: _91  and  _93
REMARK   38  A    between atoms: _93  and  _94
REMARK   39  A    between atoms: _93  and  _96
REMARK   40  A    between atoms: _96  and  _97
REMARK   41  A    between atoms: _100  and  _102
REMARK   42  A    between atoms: _102  and  _103
REMARK   43  A    between atoms: _106  and  _108
REMARK   44  A    between atoms: _108  and  _109
REMARK   45  A    between atoms: _108  and  _111
REMARK   46  A    between atoms: _111  and  _112
REMARK   47  A    between atoms: _115  and  _117
REMARK   48  A    between atoms: _117  and  _118
REMARK   49  A    between atoms: _117  and  _120
REMARK   50  A    between atoms: _123  and  _125
REMARK   51  A    between atoms: _125  and  _126
REMARK   52  A    between atoms: _125  and  _128
REMARK   53  A    between atoms: _128  and  _129
REMARK   54  A    between atoms: _131  and  _133
REMARK   55  A    between atoms: _133  and  _134
REMARK   56  A    between atoms: _133  and  _136
REMARK   57  A    between atoms: _136  and  _137
REMARK   58  A    between atoms: _140  and  _142
REMARK   59  A    between atoms: _142  and  _143
REMARK   60  A    between atoms: _142  and  _145
REMARK   61  A    between atoms: _145  and  _146
REMARK   62  A    between atoms: _152  and  _154
REMARK   63  A    between atoms: _154  and  _155
REMARK   64  A    between atoms: _154  and  _157
REMARK   65  A    between atoms: _160  and  _162
REMARK   66  A    between atoms: _162  and  _163
REMARK   67  A    between atoms: _162  and  _165
REMARK   68  A    between atoms: _165  and  _166
REMARK   69  A    between atoms: _171  and  _173
REMARK   70  A    between atoms: _173  and  _174
REMARK   71  A    between atoms: _173  and  _176
REMARK   72  A    between atoms: _176  and  _177
REMARK   73  A    between atoms: _177  and  _178
REMARK   74  A    between atoms: _183  and  _185
REMARK   75  A    between atoms: _185  and  _186
REMARK   76  A    between atoms: _185  and  _188
REMARK   77  A    between atoms: _188  and  _189
REMARK   78  A    between atoms: _195  and  _197
REMARK   79  A    between atoms: _197  and  _198
REMARK   80  A    between atoms: _197  and  _200
REMARK   81  A    between atoms: _200  and  _201
REMARK   82  A    between atoms: _206  and  _207
REMARK   83  A    between atoms: _209  and  _211
REMARK   84  A    between atoms: _211  and  _212
REMARK   85  A    between atoms: _211  and  _214
REMARK   86  A    between atoms: _214  and  _215
REMARK   87  A    between atoms: _220  and  _221
REMARK   88  A    between atoms: _223  and  _225
REMARK   89  A    between atoms: _225  and  _226
REMARK   90  A    between atoms: _225  and  _228
REMARK   91  A    between atoms: _228  and  _229
REMARK   92  A    between atoms: _234  and  _236
REMARK   93  A    between atoms: _236  and  _237
REMARK   94  A    between atoms: _236  and  _239
REMARK   95  A    between atoms: _239  and  _240
REMARK   96  A    between atoms: _246  and  _248
REMARK   97  A    between atoms: _248  and  _249
REMARK   98  A    between atoms: _251  and  _253
REMARK   99  A    between atoms: _253  and  _254
REMARK  100  A    between atoms: _253  and  _256
REMARK  101  A    between atoms: _259  and  _261
REMARK  102  A    between atoms: _261  and  _262
REMARK  103  A    between atoms: _261  and  _264
REMARK  104  A    between atoms: _264  and  _265
REMARK  105  A    between atoms: _268  and  _270
REMARK  106  A    between atoms: _270  and  _271
REMARK  107  A    between atoms: _270  and  _273
REMARK  108  A    between atoms: _273  and  _274
REMARK  109  A    between atoms: _277  and  _279
REMARK  110  A    between atoms: _279  and  _280
REMARK  111  A    between atoms: _279  and  _282
REMARK  112  A    between atoms: _285  and  _287
REMARK  113  A    between atoms: _287  and  _288
REMARK  114  A    between atoms: _287  and  _290
REMARK  115  A    between atoms: _293  and  _295
REMARK  116  A    between atoms: _295  and  _296
REMARK  117  A    between atoms: _295  and  _298
REMARK  118  A    between atoms: _298  and  _299
REMARK  119  A    between atoms: _302  and  _304
REMARK  120  A    between atoms: _304  and  _305
REMARK  121  A    between atoms: _304  and  _307
REMARK  122  A    between atoms: _307  and  _308
REMARK  123  A    between atoms: _311  and  _313
REMARK  124  A    between atoms: _313  and  _314
REMARK  125  A    between atoms: _313  and  _316
REMARK  126  A    between atoms: _316  and  _317
REMARK  127  A    between atoms: _323  and  _325
REMARK  128  A    between atoms: _325  and  _326
REMARK  129  A    between atoms: _325  and  _328
REMARK  130  A    between atoms: _328  and  _329
REMARK  131  A    between atoms: _335  and  _337
REMARK  132  A    between atoms: _337  and  _338
REMARK  133  A    between atoms: _340  and  _342
REMARK  134  A    between atoms: _342  and  _343
REMARK  135  A    between atoms: _342  and  _345
REMARK  136  A    between atoms: _345  and  _346
REMARK  137  A    between atoms: _346  and  _347
REMARK  138  A    between atoms: _350  and  _352
REMARK  139  A    between atoms: _352  and  _353
REMARK  140  A    between atoms: _352  and  _355
REMARK  141  A    between atoms: _355  and  _356
REMARK  142  A    between atoms: _356  and  _357
REMARK  143  A    between atoms: _357  and  _358
REMARK  144  A    between atoms: _358  and  _359
REMARK  145  A    between atoms: _363  and  _365
REMARK  146  A    between atoms: _365  and  _366
REMARK  147  A    between atoms: _365  and  _368
REMARK  148  A    between atoms: _368  and  _369
REMARK  149  A    between atoms: _372  and  _374
REMARK  150  A    between atoms: _374  and  _375
REMARK  151  A    between atoms: _374  and  _377
REMARK  152  A    between atoms: _377  and  _378
REMARK  153  A    between atoms: _383  and  _384
REMARK  154  A    between atoms: _386  and  _388
REMARK  155  A    between atoms: _388  and  _389
REMARK  156  A    between atoms: _388  and  _391
REMARK  157  A    between atoms: _391  and  _392
REMARK  158  A    between atoms: _392  and  _393
REMARK  159  A    between atoms: _398  and  _400
REMARK  160  A    between atoms: _400  and  _401
REMARK  161  A    between atoms: _400  and  _403
REMARK  162  A    between atoms: _403  and  _404
REMARK  163  A    between atoms: _407  and  _409
REMARK  164  A    between atoms: _409  and  _410
REMARK  165  A    between atoms: _409  and  _412
REMARK  166  A    between atoms: _412  and  _413
REMARK  167  A    between atoms: _416  and  _418
REMARK  168  A    between atoms: _418  and  _419
REMARK  169  A    between atoms: _418  and  _421
REMARK  170  A    between atoms: _424  and  _426
REMARK  171  A    between atoms: _426  and  _427
REMARK  172  A    between atoms: _429  and  _431
REMARK  173  A    between atoms: _431  and  _432
REMARK  174  A    between atoms: _431  and  _434
REMARK  175  A    between atoms: _438  and  _439
REMARK  176  A    between atoms: _444  and  _446
REMARK  177  A    between atoms: _446  and  _447
REMARK  178  A    between atoms: _446  and  _449
REMARK  179  A    between atoms: _449  and  _450
REMARK  180  A    between atoms: _453  and  _455
REMARK  181  A    between atoms: _455  and  _456
REMARK  182  A    between atoms: _455  and  _458
REMARK  183  A    between atoms: _461  and  _463
REMARK  184  A    between atoms: _463  and  _464
REMARK  185  A    between atoms: _463  and  _466
REMARK  186  A    between atoms: _466  and  _467
REMARK  187  A    between atoms: _467  and  _468
REMARK  188  A    between atoms: _468  and  _469
REMARK  189  A    between atoms: _478  and  _480
REMARK  190  A    between atoms: _480  and  _481
REMARK  191  A    between atoms: _480  and  _483
REMARK  192  A    between atoms: _483  and  _484
REMARK  193  A    between atoms: _484  and  _485
REMARK  194  A    between atoms: _488  and  _490
REMARK  195  A    between atoms: _490  and  _491
REMARK  196  A    between atoms: _490  and  _493
REMARK  197  A    between atoms: _493  and  _494
REMARK  198  A    between atoms: _497  and  _499
REMARK  199  A    between atoms: _499  and  _500
REMARK  200  A    between atoms: _503  and  _505
REMARK  201  A    between atoms: _505  and  _506
REMARK  202  A    between atoms: _505  and  _508
REMARK  203  A    between atoms: _508  and  _509
REMARK  204  A    between atoms: _509  and  _510
REMARK  205  A    between atoms: _512  and  _514
REMARK  206  A    between atoms: _514  and  _515
REMARK  207  A    between atoms: _514  and  _517
REMARK  208  A    between atoms: _517  and  _518
REMARK  209  A    between atoms: _520  and  _522
REMARK  210  A    between atoms: _522  and  _523
REMARK  211  A    between atoms: _522  and  _525
REMARK  212  A    between atoms: _525  and  _526
REMARK  213  A    between atoms: _528  and  _530
REMARK  214  A    between atoms: _530  and  _531
REMARK  215  A    between atoms: _530  and  _533
REMARK  216  A    between atoms: _533  and  _534
REMARK  217  A    between atoms: _534  and  _535
REMARK  218  A    between atoms: _535  and  _536
REMARK  219  A    between atoms: _545  and  _547
REMARK  220  A    between atoms: _547  and  _548
REMARK  221  A    between atoms: _547  and  _550
REMARK  222  A    between atoms: _550  and  _551
REMARK  223  A    between atoms: _556  and  _558
REMARK  224  A    between atoms: _558  and  _559
REMARK  225  A    between atoms: _558  and  _561
REMARK  226  A    between atoms: _561  and  _562
REMARK                            x       y       z     vdW  Elec       q    Type
REMARK                         _______ _______ _______ _____ _____    ______ ____
ROOT
ATOM      1  O   HOH     1      20.397   7.994   5.085  0.00  0.00    +0.000 OA
ENDROOT
TORSDOF 0
