REMARK  Name = ../refined-set-2016/3ioe/3ioe_pocket.pdb
REMARK  235 active torsions:
REMARK  status: ('A' for Active; 'I' for Inactive)
REMARK    1  A    between atoms: _1  and  _3
REMARK    2  A    between atoms: _3  and  _4
REMARK    3  A    between atoms: _3  and  _6
REMARK    4  A    between atoms: _10  and  _11
REMARK    5  A    between atoms: _16  and  _18
REMARK    6  A    between atoms: _18  and  _19
REMARK    7  A    between atoms: _18  and  _21
REMARK    8  A    between atoms: _21  and  _22
REMARK    9  A    between atoms: _25  and  _27
REMARK   10  A    between atoms: _27  and  _28
REMARK   11  A    between atoms: _27  and  _30
REMARK   12  A    between atoms: _30  and  _31
REMARK   13  A    between atoms: _31  and  _32
REMARK   14  A    between atoms: _34  and  _36
REMARK   15  A    between atoms: _36  and  _37
REMARK   16  A    between atoms: _39  and  _41
REMARK   17  A    between atoms: _41  and  _42
REMARK   18  A    between atoms: _45  and  _47
REMARK   19  A    between atoms: _47  and  _48
REMARK   20  A    between atoms: _47  and  _50
REMARK   21  A    between atoms: _50  and  _51
REMARK   22  A    between atoms: _54  and  _56
REMARK   23  A    between atoms: _56  and  _57
REMARK   24  A    between atoms: _56  and  _59
REMARK   25  A    between atoms: _59  and  _60
REMARK   26  A    between atoms: _65  and  _67
REMARK   27  A    between atoms: _67  and  _68
REMARK   28  A    between atoms: _67  and  _70
REMARK   29  A    between atoms: _70  and  _71
REMARK   30  A    between atoms: _71  and  _72
REMARK   31  A    between atoms: _75  and  _77
REMARK   32  A    between atoms: _77  and  _78
REMARK   33  A    between atoms: _80  and  _82
REMARK   34  A    between atoms: _82  and  _83
REMARK   35  A    between atoms: _82  and  _85
REMARK   36  A    between atoms: _85  and  _86
REMARK   37  A    between atoms: _91  and  _93
REMARK   38  A    between atoms: _93  and  _94
REMARK   39  A    between atoms: _93  and  _96
REMARK   40  A    between atoms: _96  and  _97
REMARK   41  A    between atoms: _100  and  _102
REMARK   42  A    between atoms: _102  and  _103
REMARK   43  A    between atoms: _106  and  _108
REMARK   44  A    between atoms: _108  and  _109
REMARK   45  A    between atoms: _108  and  _111
REMARK   46  A    between atoms: _111  and  _112
REMARK   47  A    between atoms: _115  and  _117
REMARK   48  A    between atoms: _117  and  _118
REMARK   49  A    between atoms: _117  and  _120
REMARK   50  A    between atoms: _123  and  _125
REMARK   51  A    between atoms: _125  and  _126
REMARK   52  A    between atoms: _125  and  _128
REMARK   53  A    between atoms: _128  and  _129
REMARK   54  A    between atoms: _131  and  _133
REMARK   55  A    between atoms: _133  and  _134
REMARK   56  A    between atoms: _133  and  _136
REMARK   57  A    between atoms: _136  and  _137
REMARK   58  A    between atoms: _140  and  _142
REMARK   59  A    between atoms: _142  and  _143
REMARK   60  A    between atoms: _142  and  _145
REMARK   61  A    between atoms: _145  and  _146
REMARK   62  A    between atoms: _152  and  _154
REMARK   63  A    between atoms: _154  and  _155
REMARK   64  A    between atoms: _154  and  _157
REMARK   65  A    between atoms: _160  and  _162
REMARK   66  A    between atoms: _162  and  _163
REMARK   67  A    between atoms: _162  and  _165
REMARK   68  A    between atoms: _165  and  _166
REMARK   69  A    between atoms: _172  and  _173
REMARK   70  A    between atoms: _178  and  _180
REMARK   71  A    between atoms: _180  and  _181
REMARK   72  A    between atoms: _180  and  _183
REMARK   73  A    between atoms: _183  and  _184
REMARK   74  A    between atoms: _184  and  _185
REMARK   75  A    between atoms: _190  and  _192
REMARK   76  A    between atoms: _192  and  _193
REMARK   77  A    between atoms: _192  and  _195
REMARK   78  A    between atoms: _195  and  _196
REMARK   79  A    between atoms: _202  and  _204
REMARK   80  A    between atoms: _204  and  _205
REMARK   81  A    between atoms: _204  and  _207
REMARK   82  A    between atoms: _207  and  _208
REMARK   83  A    between atoms: _213  and  _214
REMARK   84  A    between atoms: _216  and  _218
REMARK   85  A    between atoms: _218  and  _219
REMARK   86  A    between atoms: _218  and  _221
REMARK   87  A    between atoms: _221  and  _222
REMARK   88  A    between atoms: _227  and  _228
REMARK   89  A    between atoms: _230  and  _232
REMARK   90  A    between atoms: _232  and  _233
REMARK   91  A    between atoms: _232  and  _235
REMARK   92  A    between atoms: _235  and  _236
REMARK   93  A    between atoms: _241  and  _243
REMARK   94  A    between atoms: _243  and  _244
REMARK   95  A    between atoms: _243  and  _246
REMARK   96  A    between atoms: _246  and  _247
REMARK   97  A    between atoms: _253  and  _255
REMARK   98  A    between atoms: _255  and  _256
REMARK   99  A    between atoms: _258  and  _260
REMARK  100  A    between atoms: _260  and  _261
REMARK  101  A    between atoms: _260  and  _263
REMARK  102  A    between atoms: _266  and  _268
REMARK  103  A    between atoms: _268  and  _269
REMARK  104  A    between atoms: _268  and  _271
REMARK  105  A    between atoms: _271  and  _272
REMARK  106  A    between atoms: _275  and  _277
REMARK  107  A    between atoms: _277  and  _278
REMARK  108  A    between atoms: _277  and  _280
REMARK  109  A    between atoms: _280  and  _281
REMARK  110  A    between atoms: _284  and  _286
REMARK  111  A    between atoms: _286  and  _287
REMARK  112  A    between atoms: _286  and  _289
REMARK  113  A    between atoms: _292  and  _294
REMARK  114  A    between atoms: _294  and  _295
REMARK  115  A    between atoms: _294  and  _297
REMARK  116  A    between atoms: _300  and  _302
REMARK  117  A    between atoms: _302  and  _303
REMARK  118  A    between atoms: _302  and  _305
REMARK  119  A    between atoms: _305  and  _306
REMARK  120  A    between atoms: _309  and  _311
REMARK  121  A    between atoms: _311  and  _312
REMARK  122  A    between atoms: _311  and  _314
REMARK  123  A    between atoms: _314  and  _315
REMARK  124  A    between atoms: _318  and  _320
REMARK  125  A    between atoms: _320  and  _321
REMARK  126  A    between atoms: _320  and  _323
REMARK  127  A    between atoms: _323  and  _324
REMARK  128  A    between atoms: _330  and  _332
REMARK  129  A    between atoms: _332  and  _333
REMARK  130  A    between atoms: _332  and  _335
REMARK  131  A    between atoms: _335  and  _336
REMARK  132  A    between atoms: _342  and  _344
REMARK  133  A    between atoms: _344  and  _345
REMARK  134  A    between atoms: _347  and  _349
REMARK  135  A    between atoms: _349  and  _350
REMARK  136  A    between atoms: _349  and  _352
REMARK  137  A    between atoms: _352  and  _353
REMARK  138  A    between atoms: _353  and  _354
REMARK  139  A    between atoms: _357  and  _359
REMARK  140  A    between atoms: _359  and  _360
REMARK  141  A    between atoms: _359  and  _362
REMARK  142  A    between atoms: _362  and  _363
REMARK  143  A    between atoms: _363  and  _364
REMARK  144  A    between atoms: _364  and  _365
REMARK  145  A    between atoms: _365  and  _366
REMARK  146  A    between atoms: _370  and  _372
REMARK  147  A    between atoms: _372  and  _373
REMARK  148  A    between atoms: _372  and  _375
REMARK  149  A    between atoms: _375  and  _376
REMARK  150  A    between atoms: _379  and  _381
REMARK  151  A    between atoms: _381  and  _382
REMARK  152  A    between atoms: _381  and  _384
REMARK  153  A    between atoms: _384  and  _385
REMARK  154  A    between atoms: _390  and  _391
REMARK  155  A    between atoms: _393  and  _395
REMARK  156  A    between atoms: _395  and  _396
REMARK  157  A    between atoms: _395  and  _398
REMARK  158  A    between atoms: _398  and  _399
REMARK  159  A    between atoms: _399  and  _400
REMARK  160  A    between atoms: _405  and  _407
REMARK  161  A    between atoms: _407  and  _408
REMARK  162  A    between atoms: _407  and  _410
REMARK  163  A    between atoms: _410  and  _411
REMARK  164  A    between atoms: _414  and  _416
REMARK  165  A    between atoms: _416  and  _417
REMARK  166  A    between atoms: _416  and  _419
REMARK  167  A    between atoms: _419  and  _420
REMARK  168  A    between atoms: _423  and  _425
REMARK  169  A    between atoms: _425  and  _426
REMARK  170  A    between atoms: _425  and  _428
REMARK  171  A    between atoms: _431  and  _433
REMARK  172  A    between atoms: _433  and  _434
REMARK  173  A    between atoms: _436  and  _438
REMARK  174  A    between atoms: _438  and  _439
REMARK  175  A    between atoms: _438  and  _441
REMARK  176  A    between atoms: _445  and  _446
REMARK  177  A    between atoms: _451  and  _453
REMARK  178  A    between atoms: _453  and  _454
REMARK  179  A    between atoms: _453  and  _456
REMARK  180  A    between atoms: _456  and  _457
REMARK  181  A    between atoms: _460  and  _462
REMARK  182  A    between atoms: _462  and  _463
REMARK  183  A    between atoms: _462  and  _465
REMARK  184  A    between atoms: _468  and  _470
REMARK  185  A    between atoms: _470  and  _471
REMARK  186  A    between atoms: _470  and  _473
REMARK  187  A    between atoms: _473  and  _474
REMARK  188  A    between atoms: _474  and  _475
REMARK  189  A    between atoms: _475  and  _476
REMARK  190  A    between atoms: _485  and  _487
REMARK  191  A    between atoms: _487  and  _488
REMARK  192  A    between atoms: _487  and  _490
REMARK  193  A    between atoms: _490  and  _491
REMARK  194  A    between atoms: _491  and  _492
REMARK  195  A    between atoms: _495  and  _497
REMARK  196  A    between atoms: _497  and  _498
REMARK  197  A    between atoms: _497  and  _500
REMARK  198  A    between atoms: _500  and  _501
REMARK  199  A    between atoms: _504  and  _506
REMARK  200  A    between atoms: _506  and  _507
REMARK  201  A    between atoms: _510  and  _512
REMARK  202  A    between atoms: _512  and  _513
REMARK  203  A    between atoms: _512  and  _515
REMARK  204  A    between atoms: _515  and  _516
REMARK  205  A    between atoms: _516  and  _517
REMARK  206  A    between atoms: _519  and  _521
REMARK  207  A    between atoms: _521  and  _522
REMARK  208  A    between atoms: _521  and  _524
REMARK  209  A    between atoms: _524  and  _525
REMARK  210  A    between atoms: _527  and  _529
REMARK  211  A    between atoms: _529  and  _530
REMARK  212  A    between atoms: _529  and  _532
REMARK  213  A    between atoms: _532  and  _533
REMARK  214  A    between atoms: _535  and  _537
REMARK  215  A    between atoms: _537  and  _538
REMARK  216  A    between atoms: _537  and  _540
REMARK  217  A    between atoms: _540  and  _541
REMARK  218  A    between atoms: _541  and  _542
REMARK  219  A    between atoms: _542  and  _543
REMARK  220  A    between atoms: _552  and  _554
REMARK  221  A    between atoms: _554  and  _555
REMARK  222  A    between atoms: _554  and  _557
REMARK  223  A    between atoms: _557  and  _558
REMARK  224  A    between atoms: _563  and  _565
REMARK  225  A    between atoms: _565  and  _566
REMARK  226  A    between atoms: _565  and  _568
REMARK  227  A    between atoms: _568  and  _569
REMARK  228  A    between atoms: _572  and  _574
REMARK  229  A    between atoms: _574  and  _575
REMARK  230  A    between atoms: _574  and  _577
REMARK  231  A    between atoms: _577  and  _578
REMARK  232  A    between atoms: _581  and  _583
REMARK  233  A    between atoms: _583  and  _584
REMARK  234  A    between atoms: _583  and  _586
REMARK  235  A    between atoms: _586  and  _587
REMARK                            x       y       z     vdW  Elec       q    Type
REMARK                         _______ _______ _______ _____ _____    ______ ____
ROOT
ATOM      1  CA  HIS A   8      15.112  17.908  -3.648  0.00  0.00    +0.155 C 
ENDROOT
BRANCH   1   4
ATOM      2  C   LEU A   7      15.179  18.875  -1.379  0.00  0.00    +0.241 C 
ATOM      3  O   LEU A   7      15.576  19.980  -1.743  0.00  0.00    -0.273 OA
ATOM      4  N   HIS A   8      14.989  17.842  -2.197  0.00  0.00    -0.297 N 
ATOM      5  H   HIS A   8      14.736  16.927  -1.773  0.00  0.00    +0.150 HD
BRANCH   2   6
ATOM      6  CA  LEU A   7      14.831  18.630   0.076  0.00  0.00    +0.149 C 
BRANCH   6   8
ATOM      7  C   ALA A   6      16.985  18.746   1.158  0.00  0.00    +0.241 C 
ATOM      8  N   LEU A   7      15.769  19.253   0.978  0.00  0.00    -0.297 N 
ATOM      9  H   LEU A   7      15.490  20.111   1.495  0.00  0.00    +0.150 HD
ATOM     10  O   ALA A   6      17.442  17.841   0.455  0.00  0.00    -0.273 OA
BRANCH   7  11
ATOM     11  CA  ALA A   6      17.759  19.321   2.330  0.00  0.00    +0.149 C 
ATOM     12  CB  ALA A   6      19.074  18.545   2.568  0.00  0.00    +0.031 C 
BRANCH  11  14
ATOM     13  C   GLY A   5      16.433  18.057   3.938  0.00  0.00    +0.243 C 
ATOM     14  N   ALA A   6      16.889  19.232   3.508  0.00  0.00    -0.297 N 
ATOM     15  H   ALA A   6      16.624  20.100   4.015  0.00  0.00    +0.150 HD
ATOM     16  O   GLY A   5      16.781  16.980   3.430  0.00  0.00    -0.273 OA
BRANCH  13  17
ATOM     17  CA  GLY A   5      15.486  18.094   5.138  0.00  0.00    +0.176 C 
BRANCH  17  20
ATOM     18  C   MET A   4      16.324  16.212   6.472  0.00  0.00    +0.241 C 
ATOM     19  O   MET A   4      17.418  16.731   6.603  0.00  0.00    -0.273 OA
ATOM     20  N   GLY A   5      15.326  16.802   5.813  0.00  0.00    -0.295 N 
ATOM     21  H   GLY A   5      14.401  16.329   5.776  0.00  0.00    +0.150 HD
BRANCH  18  22
ATOM     22  CA  MET A   4      16.043  14.826   7.062  0.00  0.00    +0.149 C 
BRANCH  22  25
ATOM     23  C   THR A   3      13.841  13.965   6.816  0.00  0.00    +0.243 C 
ATOM     24  O   THR A   3      13.568  14.203   8.003  0.00  0.00    -0.273 OA
ATOM     25  N   MET A   4      15.038  14.143   6.303  0.00  0.00    -0.297 N 
ATOM     26  H   MET A   4      15.255  13.789   5.349  0.00  0.00    +0.150 HD
BRANCH  23  27
ATOM     27  CA  THR A   3      12.791  13.478   5.820  0.00  0.00    +0.176 C 
BRANCH  27  29
ATOM     28  C   PRO A   2      10.927  11.918   6.156  0.00  0.00    +0.241 C 
ATOM     29  N   THR A   3      11.593  13.016   6.526  0.00  0.00    -0.295 N 
ATOM     30  H   THR A   3      11.249  13.561   7.342  0.00  0.00    +0.150 HD
ATOM     31  O   PRO A   2      11.234  11.229   5.169  0.00  0.00    -0.273 OA
BRANCH  28  34
ATOM     32  C   VAL A   1       7.822  12.285   5.602  0.00  0.00    +0.241 C 
ATOM     33  N   PRO A   2       8.546  11.286   6.150  0.00  0.00    -0.272 N 
ATOM     34  CA  PRO A   2       9.714  11.557   6.997  0.00  0.00    +0.152 C 
ATOM     35  CB  PRO A   2       9.936  10.218   7.730  0.00  0.00    +0.031 C 
ATOM     36  CG  PRO A   2       8.631   9.452   7.521  0.00  0.00    +0.024 C 
ATOM     37  CD  PRO A   2       8.250   9.852   6.125  0.00  0.00    +0.094 C 
ATOM     38  O   VAL A   1       8.017  13.448   5.863  0.00  0.00    -0.273 OA
BRANCH  32  39
ATOM     39  CA  VAL A   1       6.620  11.918   4.748  0.00  0.00    +0.145 C 
BRANCH  39  40
ATOM     40  CB  VAL A   1       6.539  12.911   3.526  0.00  0.00    +0.025 C 
ATOM     41  CG2 VAL A   1       5.205  12.735   2.734  0.00  0.00    +0.002 C 
ATOM     42  CG1 VAL A   1       7.719  12.704   2.582  0.00  0.00    +0.002 C 
ENDBRANCH  39  40
BRANCH  39  43
ATOM     43  N   VAL A   1       5.441  12.034   5.603  0.00  0.00    -0.238 NA
ATOM     44  H   VAL A   1       5.241  12.946   6.061  0.00  0.00    +0.142 HD
ENDBRANCH  39  43
ENDBRANCH  32  39
ENDBRANCH  28  34
ENDBRANCH  27  29
BRANCH  27  45
ATOM     45  CB  THR A   3      12.527  14.678   4.814  0.00  0.00    +0.137 C 
ATOM     46  CG2 THR A   3      11.209  14.526   4.054  0.00  0.00    +0.034 C 
BRANCH  45  47
ATOM     47  OG1 THR A   3      12.452  15.895   5.544  0.00  0.00    -0.382 OA
ATOM     48  HG1 THR A   3      11.711  15.841   6.198  0.00  0.00    +0.210 HD
ENDBRANCH  45  47
ENDBRANCH  27  45
ENDBRANCH  23  27
ENDBRANCH  22  25
BRANCH  22  49
ATOM     49  CB  MET A   4      17.293  13.945   7.109  0.00  0.00    +0.041 C 
BRANCH  49  50
ATOM     50  CG  MET A   4      17.009  12.601   7.760  0.00  0.00    +0.060 C 
BRANCH  50  51
ATOM     51  SD  MET A   4      18.343  11.900   8.748  0.00  0.00    -0.139 S 
ATOM     52  CE  MET A   4      19.506  11.517   7.453  0.00  0.00    +0.069 C 
ENDBRANCH  50  51
ENDBRANCH  49  50
ENDBRANCH  22  49
ENDBRANCH  18  22
ENDBRANCH  17  20
ENDBRANCH  13  17
ENDBRANCH  11  14
ENDBRANCH   7  11
ENDBRANCH   6   8
BRANCH   6  53
ATOM     53  CB  LEU A   7      13.426  19.145   0.369  0.00  0.00    +0.029 C 
BRANCH  53  54
ATOM     54  CG  LEU A   7      12.934  18.993   1.833  0.00  0.00    +0.002 C 
ATOM     55  CD2 LEU A   7      12.915  17.573   2.241  0.00  0.00    +0.000 C 
ATOM     56  CD1 LEU A   7      11.571  19.554   2.042  0.00  0.00    +0.000 C 
ENDBRANCH  53  54
ENDBRANCH   6  53
ENDBRANCH   2   6
ENDBRANCH   1   4
BRANCH   1  57
ATOM     57  C   HIS A   8      13.848  17.258  -4.269  0.00  0.00    +0.241 C 
ATOM     58  O   HIS A   8      12.894  16.924  -3.555  0.00  0.00    -0.273 OA
ATOM     59  N   GLU A   9      13.840  17.077  -5.587  0.00  0.00    -0.297 N 
ATOM     60  H   GLU A   9      14.709  17.272  -6.125  0.00  0.00    +0.150 HD
BRANCH  59  61
ATOM     61  CA  GLU A   9      12.641  16.608  -6.316  0.00  0.00    +0.149 C 
BRANCH  61  62
ATOM     62  C   GLU A   9      12.261  15.165  -5.989  0.00  0.00    +0.241 C 
ATOM     63  N   GLY A  10      13.248  14.387  -5.535  0.00  0.00    -0.295 N 
ATOM     64  H   GLY A  10      14.226  14.738  -5.567  0.00  0.00    +0.150 HD
ATOM     65  O   GLU A   9      11.104  14.753  -6.191  0.00  0.00    -0.273 OA
BRANCH  63  66
ATOM     66  CA  GLY A  10      12.987  13.056  -4.995  0.00  0.00    +0.176 C 
BRANCH  66  67
ATOM     67  C   GLY A  10      12.046  13.097  -3.793  0.00  0.00    +0.243 C 
ATOM     68  N   HIS A  11      12.365  13.941  -2.809  0.00  0.00    -0.297 N 
ATOM     69  H   HIS A  11      13.286  14.423  -2.838  0.00  0.00    +0.150 HD
ATOM     70  O   GLY A  10      11.080  12.331  -3.733  0.00  0.00    -0.273 OA
BRANCH  68  71
ATOM     71  CA  HIS A  11      11.456  14.210  -1.687  0.00  0.00    +0.155 C 
BRANCH  71  72
ATOM     72  C   HIS A  11      10.114  14.769  -2.140  0.00  0.00    +0.241 C 
ATOM     73  O   HIS A  11       9.087  14.434  -1.558  0.00  0.00    -0.273 OA
ATOM     74  N   LEU A  12      10.107  15.613  -3.172  0.00  0.00    -0.297 N 
ATOM     75  H   LEU A  12      10.993  15.854  -3.660  0.00  0.00    +0.150 HD
BRANCH  74  76
ATOM     76  CA  LEU A  12       8.835  16.199  -3.613  0.00  0.00    +0.149 C 
BRANCH  76  77
ATOM     77  C   LEU A  12       7.912  15.163  -4.299  0.00  0.00    +0.241 C 
ATOM     78  O   LEU A  12       6.691  15.335  -4.312  0.00  0.00    -0.273 OA
ATOM     79  N   ALA A  13       8.479  14.075  -4.838  0.00  0.00    -0.297 N 
ATOM     80  H   ALA A  13       9.515  13.984  -4.849  0.00  0.00    +0.150 HD
BRANCH  79  81
ATOM     81  CA  ALA A  13       7.639  13.002  -5.418  0.00  0.00    +0.149 C 
ATOM     82  CB  ALA A  13       8.461  12.008  -6.193  0.00  0.00    +0.031 C 
BRANCH  81  83
ATOM     83  C   ALA A  13       6.903  12.293  -4.288  0.00  0.00    +0.241 C 
ATOM     84  N   LEU A  14       7.587  12.136  -3.154  0.00  0.00    -0.297 N 
ATOM     85  H   LEU A  14       8.582  12.439  -3.132  0.00  0.00    +0.150 HD
ATOM     86  O   ALA A  13       5.749  11.909  -4.447  0.00  0.00    -0.273 OA
BRANCH  84  87
ATOM     87  CA  LEU A  14       7.009  11.559  -1.937  0.00  0.00    +0.149 C 
BRANCH  87  88
ATOM     88  C   LEU A  14       5.841  12.427  -1.500  0.00  0.00    +0.241 C 
ATOM     89  O   LEU A  14       4.751  11.928  -1.203  0.00  0.00    -0.273 OA
ATOM     90  N   VAL A  15       6.076  13.730  -1.461  0.00  0.00    -0.298 N 
ATOM     91  H   VAL A  15       7.025  14.075  -1.709  0.00  0.00    +0.150 HD
BRANCH  90  92
ATOM     92  CA  VAL A  15       5.049  14.705  -1.081  0.00  0.00    +0.137 C 
BRANCH  92  93
ATOM     93  CB  VAL A  15       5.591  16.129  -1.166  0.00  0.00    +0.026 C 
ATOM     94  CG2 VAL A  15       6.536  16.435   0.020  0.00  0.00    +0.002 C 
ATOM     95  CG1 VAL A  15       4.425  17.153  -1.277  0.00  0.00    +0.002 C 
ENDBRANCH  92  93
BRANCH  92  96
ATOM     96  C   VAL A  15       3.833  14.613  -2.023  0.00  0.00    +0.227 C 
ATOM     97  O   VAL A  15       2.694  14.653  -1.595  0.00  0.00    -0.286 OA
ENDBRANCH  92  96
ENDBRANCH  90  92
ENDBRANCH  87  88
BRANCH  87  98
ATOM     98  CB  LEU A  14       8.084  11.450  -0.814  0.00  0.00    +0.029 C 
BRANCH  98  99
ATOM     99  CG  LEU A  14       9.266  10.482  -1.019  0.00  0.00    +0.002 C 
ATOM    100  CD2 LEU A  14      10.104  10.336   0.238  0.00  0.00    +0.000 C 
ATOM    101  CD1 LEU A  14       8.744   9.156  -1.384  0.00  0.00    +0.000 C 
ENDBRANCH  98  99
ENDBRANCH  87  98
ENDBRANCH  84  87
ENDBRANCH  81  83
ENDBRANCH  79  81
ENDBRANCH  76  77
BRANCH  76 102
ATOM    102  CB  LEU A  12       9.075  17.429  -4.471  0.00  0.00    +0.029 C 
BRANCH 102 103
ATOM    103  CG  LEU A  12       9.874  18.564  -3.802  0.00  0.00    +0.002 C 
ATOM    104  CD2 LEU A  12       9.297  18.940  -2.464  0.00  0.00    +0.000 C 
ATOM    105  CD1 LEU A  12       9.938  19.805  -4.693  0.00  0.00    +0.000 C 
ENDBRANCH 102 103
ENDBRANCH  76 102
ENDBRANCH  74  76
ENDBRANCH  71  72
BRANCH  71 106
ATOM    106  CB  HIS A  11      12.063  15.222  -0.732  0.00  0.00    +0.076 C 
BRANCH 106 107
ATOM    107  CG  HIS A  11      13.342  14.762  -0.112  0.00  0.00    +0.082 A 
ATOM    108  CD2 HIS A  11      13.598  13.810   0.817  0.00  0.00    +0.115 A 
ATOM    109  NE2 HIS A  11      14.956  13.821   1.045  0.00  0.00    -0.221 NA
ATOM    110  CE1 HIS A  11      15.510  14.732   0.267  0.00  0.00    +0.199 A 
ATOM    111  ND1 HIS A  11      14.556  15.308  -0.449  0.00  0.00    -0.227 NA
ENDBRANCH 106 107
ENDBRANCH  71 106
ENDBRANCH  68  71
ENDBRANCH  66  67
ENDBRANCH  63  66
ENDBRANCH  61  62
BRANCH  61 112
ATOM    112  CB  GLU A   9      12.863  16.740  -7.837  0.00  0.00    +0.041 C 
BRANCH 112 113
ATOM    113  CG  GLU A   9      11.583  17.127  -8.600  0.00  0.00    +0.116 C 
BRANCH 113 114
ATOM    114  CD  GLU A   9      11.140  18.542  -8.274  0.00  0.00    +0.365 C 
ATOM    115  OE2 GLU A   9       9.925  18.750  -8.053  0.00  0.00    -0.246 OA
ATOM    116  OE1 GLU A   9      12.012  19.447  -8.217  0.00  0.00    -0.246 OA
ENDBRANCH 113 114
ENDBRANCH 112 113
ENDBRANCH  61 112
ENDBRANCH  59  61
ENDBRANCH   1  57
BRANCH   1 117
ATOM    117  CB  HIS A   8      16.418  17.232  -4.123  0.00  0.00    +0.076 C 
BRANCH 117 118
ATOM    118  CG  HIS A   8      16.584  15.826  -3.633  0.00  0.00    +0.082 A 
ATOM    119  CD2 HIS A   8      17.385  15.306  -2.676  0.00  0.00    +0.115 A 
ATOM    120  NE2 HIS A   8      17.126  13.959  -2.624  0.00  0.00    -0.221 NA
ATOM    121  CE1 HIS A   8      16.178  13.663  -3.494  0.00  0.00    +0.199 A 
ATOM    122  ND1 HIS A   8      15.842  14.772  -4.124  0.00  0.00    -0.227 NA
ENDBRANCH 117 118
ENDBRANCH   1 117
TORSDOF 49
REMARK  Name = ../refined-set-2016/3ioe/3ioe_pocket.pdb
REMARK  235 active torsions:
REMARK  status: ('A' for Active; 'I' for Inactive)
REMARK    1  A    between atoms: _1  and  _3
REMARK    2  A    between atoms: _3  and  _4
REMARK    3  A    between atoms: _3  and  _6
REMARK    4  A    between atoms: _10  and  _11
REMARK    5  A    between atoms: _16  and  _18
REMARK    6  A    between atoms: _18  and  _19
REMARK    7  A    between atoms: _18  and  _21
REMARK    8  A    between atoms: _21  and  _22
REMARK    9  A    between atoms: _25  and  _27
REMARK   10  A    between atoms: _27  and  _28
REMARK   11  A    between atoms: _27  and  _30
REMARK   12  A    between atoms: _30  and  _31
REMARK   13  A    between atoms: _31  and  _32
REMARK   14  A    between atoms: _34  and  _36
REMARK   15  A    between atoms: _36  and  _37
REMARK   16  A    between atoms: _39  and  _41
REMARK   17  A    between atoms: _41  and  _42
REMARK   18  A    between atoms: _45  and  _47
REMARK   19  A    between atoms: _47  and  _48
REMARK   20  A    between atoms: _47  and  _50
REMARK   21  A    between atoms: _50  and  _51
REMARK   22  A    between atoms: _54  and  _56
REMARK   23  A    between atoms: _56  and  _57
REMARK   24  A    between atoms: _56  and  _59
REMARK   25  A    between atoms: _59  and  _60
REMARK   26  A    between atoms: _65  and  _67
REMARK   27  A    between atoms: _67  and  _68
REMARK   28  A    between atoms: _67  and  _70
REMARK   29  A    between atoms: _70  and  _71
REMARK   30  A    between atoms: _71  and  _72
REMARK   31  A    between atoms: _75  and  _77
REMARK   32  A    between atoms: _77  and  _78
REMARK   33  A    between atoms: _80  and  _82
REMARK   34  A    between atoms: _82  and  _83
REMARK   35  A    between atoms: _82  and  _85
REMARK   36  A    between atoms: _85  and  _86
REMARK   37  A    between atoms: _91  and  _93
REMARK   38  A    between atoms: _93  and  _94
REMARK   39  A    between atoms: _93  and  _96
REMARK   40  A    between atoms: _96  and  _97
REMARK   41  A    between atoms: _100  and  _102
REMARK   42  A    between atoms: _102  and  _103
REMARK   43  A    between atoms: _106  and  _108
REMARK   44  A    between atoms: _108  and  _109
REMARK   45  A    between atoms: _108  and  _111
REMARK   46  A    between atoms: _111  and  _112
REMARK   47  A    between atoms: _115  and  _117
REMARK   48  A    between atoms: _117  and  _118
REMARK   49  A    between atoms: _117  and  _120
REMARK   50  A    between atoms: _123  and  _125
REMARK   51  A    between atoms: _125  and  _126
REMARK   52  A    between atoms: _125  and  _128
REMARK   53  A    between atoms: _128  and  _129
REMARK   54  A    between atoms: _131  and  _133
REMARK   55  A    between atoms: _133  and  _134
REMARK   56  A    between atoms: _133  and  _136
REMARK   57  A    between atoms: _136  and  _137
REMARK   58  A    between atoms: _140  and  _142
REMARK   59  A    between atoms: _142  and  _143
REMARK   60  A    between atoms: _142  and  _145
REMARK   61  A    between atoms: _145  and  _146
REMARK   62  A    between atoms: _152  and  _154
REMARK   63  A    between atoms: _154  and  _155
REMARK   64  A    between atoms: _154  and  _157
REMARK   65  A    between atoms: _160  and  _162
REMARK   66  A    between atoms: _162  and  _163
REMARK   67  A    between atoms: _162  and  _165
REMARK   68  A    between atoms: _165  and  _166
REMARK   69  A    between atoms: _172  and  _173
REMARK   70  A    between atoms: _178  and  _180
REMARK   71  A    between atoms: _180  and  _181
REMARK   72  A    between atoms: _180  and  _183
REMARK   73  A    between atoms: _183  and  _184
REMARK   74  A    between atoms: _184  and  _185
REMARK   75  A    between atoms: _190  and  _192
REMARK   76  A    between atoms: _192  and  _193
REMARK   77  A    between atoms: _192  and  _195
REMARK   78  A    between atoms: _195  and  _196
REMARK   79  A    between atoms: _202  and  _204
REMARK   80  A    between atoms: _204  and  _205
REMARK   81  A    between atoms: _204  and  _207
REMARK   82  A    between atoms: _207  and  _208
REMARK   83  A    between atoms: _213  and  _214
REMARK   84  A    between atoms: _216  and  _218
REMARK   85  A    between atoms: _218  and  _219
REMARK   86  A    between atoms: _218  and  _221
REMARK   87  A    between atoms: _221  and  _222
REMARK   88  A    between atoms: _227  and  _228
REMARK   89  A    between atoms: _230  and  _232
REMARK   90  A    between atoms: _232  and  _233
REMARK   91  A    between atoms: _232  and  _235
REMARK   92  A    between atoms: _235  and  _236
REMARK   93  A    between atoms: _241  and  _243
REMARK   94  A    between atoms: _243  and  _244
REMARK   95  A    between atoms: _243  and  _246
REMARK   96  A    between atoms: _246  and  _247
REMARK   97  A    between atoms: _253  and  _255
REMARK   98  A    between atoms: _255  and  _256
REMARK   99  A    between atoms: _258  and  _260
REMARK  100  A    between atoms: _260  and  _261
REMARK  101  A    between atoms: _260  and  _263
REMARK  102  A    between atoms: _266  and  _268
REMARK  103  A    between atoms: _268  and  _269
REMARK  104  A    between atoms: _268  and  _271
REMARK  105  A    between atoms: _271  and  _272
REMARK  106  A    between atoms: _275  and  _277
REMARK  107  A    between atoms: _277  and  _278
REMARK  108  A    between atoms: _277  and  _280
REMARK  109  A    between atoms: _280  and  _281
REMARK  110  A    between atoms: _284  and  _286
REMARK  111  A    between atoms: _286  and  _287
REMARK  112  A    between atoms: _286  and  _289
REMARK  113  A    between atoms: _292  and  _294
REMARK  114  A    between atoms: _294  and  _295
REMARK  115  A    between atoms: _294  and  _297
REMARK  116  A    between atoms: _300  and  _302
REMARK  117  A    between atoms: _302  and  _303
REMARK  118  A    between atoms: _302  and  _305
REMARK  119  A    between atoms: _305  and  _306
REMARK  120  A    between atoms: _309  and  _311
REMARK  121  A    between atoms: _311  and  _312
REMARK  122  A    between atoms: _311  and  _314
REMARK  123  A    between atoms: _314  and  _315
REMARK  124  A    between atoms: _318  and  _320
REMARK  125  A    between atoms: _320  and  _321
REMARK  126  A    between atoms: _320  and  _323
REMARK  127  A    between atoms: _323  and  _324
REMARK  128  A    between atoms: _330  and  _332
REMARK  129  A    between atoms: _332  and  _333
REMARK  130  A    between atoms: _332  and  _335
REMARK  131  A    between atoms: _335  and  _336
REMARK  132  A    between atoms: _342  and  _344
REMARK  133  A    between atoms: _344  and  _345
REMARK  134  A    between atoms: _347  and  _349
REMARK  135  A    between atoms: _349  and  _350
REMARK  136  A    between atoms: _349  and  _352
REMARK  137  A    between atoms: _352  and  _353
REMARK  138  A    between atoms: _353  and  _354
REMARK  139  A    between atoms: _357  and  _359
REMARK  140  A    between atoms: _359  and  _360
REMARK  141  A    between atoms: _359  and  _362
REMARK  142  A    between atoms: _362  and  _363
REMARK  143  A    between atoms: _363  and  _364
REMARK  144  A    between atoms: _364  and  _365
REMARK  145  A    between atoms: _365  and  _366
REMARK  146  A    between atoms: _370  and  _372
REMARK  147  A    between atoms: _372  and  _373
REMARK  148  A    between atoms: _372  and  _375
REMARK  149  A    between atoms: _375  and  _376
REMARK  150  A    between atoms: _379  and  _381
REMARK  151  A    between atoms: _381  and  _382
REMARK  152  A    between atoms: _381  and  _384
REMARK  153  A    between atoms: _384  and  _385
REMARK  154  A    between atoms: _390  and  _391
REMARK  155  A    between atoms: _393  and  _395
REMARK  156  A    between atoms: _395  and  _396
REMARK  157  A    between atoms: _395  and  _398
REMARK  158  A    between atoms: _398  and  _399
REMARK  159  A    between atoms: _399  and  _400
REMARK  160  A    between atoms: _405  and  _407
REMARK  161  A    between atoms: _407  and  _408
REMARK  162  A    between atoms: _407  and  _410
REMARK  163  A    between atoms: _410  and  _411
REMARK  164  A    between atoms: _414  and  _416
REMARK  165  A    between atoms: _416  and  _417
REMARK  166  A    between atoms: _416  and  _419
REMARK  167  A    between atoms: _419  and  _420
REMARK  168  A    between atoms: _423  and  _425
REMARK  169  A    between atoms: _425  and  _426
REMARK  170  A    between atoms: _425  and  _428
REMARK  171  A    between atoms: _431  and  _433
REMARK  172  A    between atoms: _433  and  _434
REMARK  173  A    between atoms: _436  and  _438
REMARK  174  A    between atoms: _438  and  _439
REMARK  175  A    between atoms: _438  and  _441
REMARK  176  A    between atoms: _445  and  _446
REMARK  177  A    between atoms: _451  and  _453
REMARK  178  A    between atoms: _453  and  _454
REMARK  179  A    between atoms: _453  and  _456
REMARK  180  A    between atoms: _456  and  _457
REMARK  181  A    between atoms: _460  and  _462
REMARK  182  A    between atoms: _462  and  _463
REMARK  183  A    between atoms: _462  and  _465
REMARK  184  A    between atoms: _468  and  _470
REMARK  185  A    between atoms: _470  and  _471
REMARK  186  A    between atoms: _470  and  _473
REMARK  187  A    between atoms: _473  and  _474
REMARK  188  A    between atoms: _474  and  _475
REMARK  189  A    between atoms: _475  and  _476
REMARK  190  A    between atoms: _485  and  _487
REMARK  191  A    between atoms: _487  and  _488
REMARK  192  A    between atoms: _487  and  _490
REMARK  193  A    between atoms: _490  and  _491
REMARK  194  A    between atoms: _491  and  _492
REMARK  195  A    between atoms: _495  and  _497
REMARK  196  A    between atoms: _497  and  _498
REMARK  197  A    between atoms: _497  and  _500
REMARK  198  A    between atoms: _500  and  _501
REMARK  199  A    between atoms: _504  and  _506
REMARK  200  A    between atoms: _506  and  _507
REMARK  201  A    between atoms: _510  and  _512
REMARK  202  A    between atoms: _512  and  _513
REMARK  203  A    between atoms: _512  and  _515
REMARK  204  A    between atoms: _515  and  _516
REMARK  205  A    between atoms: _516  and  _517
REMARK  206  A    between atoms: _519  and  _521
REMARK  207  A    between atoms: _521  and  _522
REMARK  208  A    between atoms: _521  and  _524
REMARK  209  A    between atoms: _524  and  _525
REMARK  210  A    between atoms: _527  and  _529
REMARK  211  A    between atoms: _529  and  _530
REMARK  212  A    between atoms: _529  and  _532
REMARK  213  A    between atoms: _532  and  _533
REMARK  214  A    between atoms: _535  and  _537
REMARK  215  A    between atoms: _537  and  _538
REMARK  216  A    between atoms: _537  and  _540
REMARK  217  A    between atoms: _540  and  _541
REMARK  218  A    between atoms: _541  and  _542
REMARK  219  A    between atoms: _542  and  _543
REMARK  220  A    between atoms: _552  and  _554
REMARK  221  A    between atoms: _554  and  _555
REMARK  222  A    between atoms: _554  and  _557
REMARK  223  A    between atoms: _557  and  _558
REMARK  224  A    between atoms: _563  and  _565
REMARK  225  A    between atoms: _565  and  _566
REMARK  226  A    between atoms: _565  and  _568
REMARK  227  A    between atoms: _568  and  _569
REMARK  228  A    between atoms: _572  and  _574
REMARK  229  A    between atoms: _574  and  _575
REMARK  230  A    between atoms: _574  and  _577
REMARK  231  A    between atoms: _577  and  _578
REMARK  232  A    between atoms: _581  and  _583
REMARK  233  A    between atoms: _583  and  _584
REMARK  234  A    between atoms: _583  and  _586
REMARK  235  A    between atoms: _586  and  _587
REMARK                            x       y       z     vdW  Elec       q    Type
REMARK                         _______ _______ _______ _____ _____    ______ ____
ROOT
ATOM      1  C   PHE A   3      15.924  15.218  11.165  0.00  0.00    +0.241 C 
ATOM      2  N   VAL A   4      17.077  15.814  11.480  0.00  0.00    -0.297 N 
ATOM      3  H   VAL A   4      17.068  16.731  11.970  0.00  0.00    +0.150 HD
ATOM      4  O   PHE A   3      15.860  14.153  10.533  0.00  0.00    -0.273 OA
ENDROOT
BRANCH   2   5
ATOM      5  CA  VAL A   4      18.356  15.181  11.138  0.00  0.00    +0.149 C 
BRANCH   5   6
ATOM      6  C   VAL A   4      18.658  14.377  12.356  0.00  0.00    +0.241 C 
ATOM      7  O   VAL A   4      19.079  14.921  13.380  0.00  0.00    -0.273 OA
ATOM      8  N   ASN A   5      18.386  13.086  12.243  0.00  0.00    -0.297 N 
ATOM      9  H   ASN A   5      18.222  12.696  11.293  0.00  0.00    +0.150 HD
BRANCH   8  10
ATOM     10  CA  ASN A   5      18.307  12.203  13.364  0.00  0.00    +0.158 C 
BRANCH  10  11
ATOM     11  C   ASN A   5      19.704  11.818  13.820  0.00  0.00    +0.244 C 
ATOM     12  N   PRO A   6      20.152  12.315  14.991  0.00  0.00    -0.273 N 
ATOM     13  CD  PRO A   6      19.512  13.108  16.059  0.00  0.00    +0.094 C 
ATOM     14  CG  PRO A   6      20.675  13.689  16.781  0.00  0.00    +0.024 C 
ATOM     15  CB  PRO A   6      21.787  12.699  16.658  0.00  0.00    +0.030 C 
ATOM     16  CA  PRO A   6      21.538  11.969  15.325  0.00  0.00    +0.140 C 
ATOM     17  O   ASN A   5      20.377  11.052  13.115  0.00  0.00    -0.273 OA
BRANCH  16  18
ATOM     18  C   PRO A   6      21.746  10.437  15.480  0.00  0.00    +0.227 C 
ATOM     19  O   PRO A   6      22.847   9.945  15.262  0.00  0.00    -0.286 OA
ENDBRANCH  16  18
ENDBRANCH  10  11
BRANCH  10  20
ATOM     20  CB  ASN A   5      17.545  10.940  12.932  0.00  0.00    +0.114 C 
BRANCH  20  21
ATOM     21  CG  ASN A   5      17.546   9.854  14.012  0.00  0.00    +0.222 C 
ATOM     22  OD1 ASN A   5      17.715  10.152  15.206  0.00  0.00    -0.275 OA
ATOM     23  ND2 ASN A   5      17.377   8.588  13.593  0.00  0.00    -0.329 N 
ATOM     24 HD21 ASN A   5      17.384   7.807  14.280  0.00  0.00    +0.145 HD
ATOM     25 HD22 ASN A   5      17.239   8.389  12.582  0.00  0.00    +0.145 HD
ENDBRANCH  20  21
ENDBRANCH  10  20
ENDBRANCH   8  10
ENDBRANCH   5   6
BRANCH   5  26
ATOM     26  CB  VAL A   4      19.507  16.207  10.875  0.00  0.00    +0.027 C 
ATOM     27  CG2 VAL A   4      20.798  15.488  10.434  0.00  0.00    +0.002 C 
ATOM     28  CG1 VAL A   4      19.108  17.249   9.832  0.00  0.00    +0.002 C 
ENDBRANCH   5  26
ENDBRANCH   2   5
BRANCH   1  29
ATOM     29  CA  PHE A   3      14.681  15.972  11.546  0.00  0.00    +0.153 C 
BRANCH  29  32
ATOM     30  C   ILE A   2      13.039  17.208  10.258  0.00  0.00    +0.241 C 
ATOM     31  O   ILE A   2      12.862  17.999  11.174  0.00  0.00    -0.273 OA
ATOM     32  N   PHE A   3      13.912  16.221  10.311  0.00  0.00    -0.297 N 
ATOM     33  H   PHE A   3      14.059  15.615   9.479  0.00  0.00    +0.150 HD
BRANCH  30  34
ATOM     34  CA  ILE A   2      12.246  17.356   8.971  0.00  0.00    +0.148 C 
BRANCH  34  36
ATOM     35  C   SER A   1      10.225  16.105   8.655  0.00  0.00    +0.241 C 
ATOM     36  N   ILE A   2      10.882  17.035   9.324  0.00  0.00    -0.297 N 
ATOM     37  H   ILE A   2      10.417  17.537  10.107  0.00  0.00    +0.150 HD
ATOM     38  O   SER A   1      10.694  15.561   7.644  0.00  0.00    -0.274 OA
BRANCH  35  39
ATOM     39  CA  SER A   1       8.821  15.817   9.177  0.00  0.00    +0.174 C 
BRANCH  39  40
ATOM     40  N   SER A   1       7.904  15.597   8.074  0.00  0.00    -0.236 NA
ATOM     41  H   SER A   1       7.786  14.639   7.686  0.00  0.00    +0.142 HD
ENDBRANCH  39  40
BRANCH  39  42
ATOM     42  CB  SER A   1       8.805  14.652  10.195  0.00  0.00    +0.163 C 
BRANCH  42  43
ATOM     43  OG  SER A   1       9.304  13.496   9.569  0.00  0.00    -0.380 OA
ATOM     44  H   SER A   1      10.231  13.662   9.263  0.00  0.00    +0.211 HD
ENDBRANCH  42  43
ENDBRANCH  39  42
ENDBRANCH  35  39
ENDBRANCH  34  36
BRANCH  34  45
ATOM     45  CB  ILE A   2      12.390  18.792   8.388  0.00  0.00    +0.027 C 
ATOM     46  CG2 ILE A   2      13.927  19.187   8.234  0.00  0.00    +0.002 C 
BRANCH  45  47
ATOM     47  CG1 ILE A   2      11.749  18.874   7.010  0.00  0.00    +0.002 C 
ATOM     48  CD1 ILE A   2      11.436  20.307   6.545  0.00  0.00    +0.000 C 
ENDBRANCH  45  47
ENDBRANCH  34  45
ENDBRANCH  30  34
ENDBRANCH  29  32
BRANCH  29  49
ATOM     49  CB  PHE A   3      13.848  15.194  12.594  0.00  0.00    +0.055 C 
BRANCH  49  50
ATOM     50  CG  PHE A   3      14.594  14.868  13.879  0.00  0.00    -0.020 A 
ATOM     51  CD2 PHE A   3      15.160  15.875  14.670  0.00  0.00    -0.004 A 
ATOM     52  CE2 PHE A   3      15.842  15.569  15.856  0.00  0.00    -0.000 A 
ATOM     53  CZ  PHE A   3      15.967  14.231  16.267  0.00  0.00    -0.000 A 
ATOM     54  CE1 PHE A   3      15.402  13.231  15.485  0.00  0.00    -0.000 A 
ATOM     55  CD1 PHE A   3      14.724  13.547  14.298  0.00  0.00    -0.004 A 
ENDBRANCH  49  50
ENDBRANCH  29  49
ENDBRANCH   1  29
TORSDOF 20
REMARK  Name = ../refined-set-2016/3ioe/3ioe_pocket.pdb
REMARK  235 active torsions:
REMARK  status: ('A' for Active; 'I' for Inactive)
REMARK    1  A    between atoms: _1  and  _3
REMARK    2  A    between atoms: _3  and  _4
REMARK    3  A    between atoms: _3  and  _6
REMARK    4  A    between atoms: _10  and  _11
REMARK    5  A    between atoms: _16  and  _18
REMARK    6  A    between atoms: _18  and  _19
REMARK    7  A    between atoms: _18  and  _21
REMARK    8  A    between atoms: _21  and  _22
REMARK    9  A    between atoms: _25  and  _27
REMARK   10  A    between atoms: _27  and  _28
REMARK   11  A    between atoms: _27  and  _30
REMARK   12  A    between atoms: _30  and  _31
REMARK   13  A    between atoms: _31  and  _32
REMARK   14  A    between atoms: _34  and  _36
REMARK   15  A    between atoms: _36  and  _37
REMARK   16  A    between atoms: _39  and  _41
REMARK   17  A    between atoms: _41  and  _42
REMARK   18  A    between atoms: _45  and  _47
REMARK   19  A    between atoms: _47  and  _48
REMARK   20  A    between atoms: _47  and  _50
REMARK   21  A    between atoms: _50  and  _51
REMARK   22  A    between atoms: _54  and  _56
REMARK   23  A    between atoms: _56  and  _57
REMARK   24  A    between atoms: _56  and  _59
REMARK   25  A    between atoms: _59  and  _60
REMARK   26  A    between atoms: _65  and  _67
REMARK   27  A    between atoms: _67  and  _68
REMARK   28  A    between atoms: _67  and  _70
REMARK   29  A    between atoms: _70  and  _71
REMARK   30  A    between atoms: _71  and  _72
REMARK   31  A    between atoms: _75  and  _77
REMARK   32  A    between atoms: _77  and  _78
REMARK   33  A    between atoms: _80  and  _82
REMARK   34  A    between atoms: _82  and  _83
REMARK   35  A    between atoms: _82  and  _85
REMARK   36  A    between atoms: _85  and  _86
REMARK   37  A    between atoms: _91  and  _93
REMARK   38  A    between atoms: _93  and  _94
REMARK   39  A    between atoms: _93  and  _96
REMARK   40  A    between atoms: _96  and  _97
REMARK   41  A    between atoms: _100  and  _102
REMARK   42  A    between atoms: _102  and  _103
REMARK   43  A    between atoms: _106  and  _108
REMARK   44  A    between atoms: _108  and  _109
REMARK   45  A    between atoms: _108  and  _111
REMARK   46  A    between atoms: _111  and  _112
REMARK   47  A    between atoms: _115  and  _117
REMARK   48  A    between atoms: _117  and  _118
REMARK   49  A    between atoms: _117  and  _120
REMARK   50  A    between atoms: _123  and  _125
REMARK   51  A    between atoms: _125  and  _126
REMARK   52  A    between atoms: _125  and  _128
REMARK   53  A    between atoms: _128  and  _129
REMARK   54  A    between atoms: _131  and  _133
REMARK   55  A    between atoms: _133  and  _134
REMARK   56  A    between atoms: _133  and  _136
REMARK   57  A    between atoms: _136  and  _137
REMARK   58  A    between atoms: _140  and  _142
REMARK   59  A    between atoms: _142  and  _143
REMARK   60  A    between atoms: _142  and  _145
REMARK   61  A    between atoms: _145  and  _146
REMARK   62  A    between atoms: _152  and  _154
REMARK   63  A    between atoms: _154  and  _155
REMARK   64  A    between atoms: _154  and  _157
REMARK   65  A    between atoms: _160  and  _162
REMARK   66  A    between atoms: _162  and  _163
REMARK   67  A    between atoms: _162  and  _165
REMARK   68  A    between atoms: _165  and  _166
REMARK   69  A    between atoms: _172  and  _173
REMARK   70  A    between atoms: _178  and  _180
REMARK   71  A    between atoms: _180  and  _181
REMARK   72  A    between atoms: _180  and  _183
REMARK   73  A    between atoms: _183  and  _184
REMARK   74  A    between atoms: _184  and  _185
REMARK   75  A    between atoms: _190  and  _192
REMARK   76  A    between atoms: _192  and  _193
REMARK   77  A    between atoms: _192  and  _195
REMARK   78  A    between atoms: _195  and  _196
REMARK   79  A    between atoms: _202  and  _204
REMARK   80  A    between atoms: _204  and  _205
REMARK   81  A    between atoms: _204  and  _207
REMARK   82  A    between atoms: _207  and  _208
REMARK   83  A    between atoms: _213  and  _214
REMARK   84  A    between atoms: _216  and  _218
REMARK   85  A    between atoms: _218  and  _219
REMARK   86  A    between atoms: _218  and  _221
REMARK   87  A    between atoms: _221  and  _222
REMARK   88  A    between atoms: _227  and  _228
REMARK   89  A    between atoms: _230  and  _232
REMARK   90  A    between atoms: _232  and  _233
REMARK   91  A    between atoms: _232  and  _235
REMARK   92  A    between atoms: _235  and  _236
REMARK   93  A    between atoms: _241  and  _243
REMARK   94  A    between atoms: _243  and  _244
REMARK   95  A    between atoms: _243  and  _246
REMARK   96  A    between atoms: _246  and  _247
REMARK   97  A    between atoms: _253  and  _255
REMARK   98  A    between atoms: _255  and  _256
REMARK   99  A    between atoms: _258  and  _260
REMARK  100  A    between atoms: _260  and  _261
REMARK  101  A    between atoms: _260  and  _263
REMARK  102  A    between atoms: _266  and  _268
REMARK  103  A    between atoms: _268  and  _269
REMARK  104  A    between atoms: _268  and  _271
REMARK  105  A    between atoms: _271  and  _272
REMARK  106  A    between atoms: _275  and  _277
REMARK  107  A    between atoms: _277  and  _278
REMARK  108  A    between atoms: _277  and  _280
REMARK  109  A    between atoms: _280  and  _281
REMARK  110  A    between atoms: _284  and  _286
REMARK  111  A    between atoms: _286  and  _287
REMARK  112  A    between atoms: _286  and  _289
REMARK  113  A    between atoms: _292  and  _294
REMARK  114  A    between atoms: _294  and  _295
REMARK  115  A    between atoms: _294  and  _297
REMARK  116  A    between atoms: _300  and  _302
REMARK  117  A    between atoms: _302  and  _303
REMARK  118  A    between atoms: _302  and  _305
REMARK  119  A    between atoms: _305  and  _306
REMARK  120  A    between atoms: _309  and  _311
REMARK  121  A    between atoms: _311  and  _312
REMARK  122  A    between atoms: _311  and  _314
REMARK  123  A    between atoms: _314  and  _315
REMARK  124  A    between atoms: _318  and  _320
REMARK  125  A    between atoms: _320  and  _321
REMARK  126  A    between atoms: _320  and  _323
REMARK  127  A    between atoms: _323  and  _324
REMARK  128  A    between atoms: _330  and  _332
REMARK  129  A    between atoms: _332  and  _333
REMARK  130  A    between atoms: _332  and  _335
REMARK  131  A    between atoms: _335  and  _336
REMARK  132  A    between atoms: _342  and  _344
REMARK  133  A    between atoms: _344  and  _345
REMARK  134  A    between atoms: _347  and  _349
REMARK  135  A    between atoms: _349  and  _350
REMARK  136  A    between atoms: _349  and  _352
REMARK  137  A    between atoms: _352  and  _353
REMARK  138  A    between atoms: _353  and  _354
REMARK  139  A    between atoms: _357  and  _359
REMARK  140  A    between atoms: _359  and  _360
REMARK  141  A    between atoms: _359  and  _362
REMARK  142  A    between atoms: _362  and  _363
REMARK  143  A    between atoms: _363  and  _364
REMARK  144  A    between atoms: _364  and  _365
REMARK  145  A    between atoms: _365  and  _366
REMARK  146  A    between atoms: _370  and  _372
REMARK  147  A    between atoms: _372  and  _373
REMARK  148  A    between atoms: _372  and  _375
REMARK  149  A    between atoms: _375  and  _376
REMARK  150  A    between atoms: _379  and  _381
REMARK  151  A    between atoms: _381  and  _382
REMARK  152  A    between atoms: _381  and  _384
REMARK  153  A    between atoms: _384  and  _385
REMARK  154  A    between atoms: _390  and  _391
REMARK  155  A    between atoms: _393  and  _395
REMARK  156  A    between atoms: _395  and  _396
REMARK  157  A    between atoms: _395  and  _398
REMARK  158  A    between atoms: _398  and  _399
REMARK  159  A    between atoms: _399  and  _400
REMARK  160  A    between atoms: _405  and  _407
REMARK  161  A    between atoms: _407  and  _408
REMARK  162  A    between atoms: _407  and  _410
REMARK  163  A    between atoms: _410  and  _411
REMARK  164  A    between atoms: _414  and  _416
REMARK  165  A    between atoms: _416  and  _417
REMARK  166  A    between atoms: _416  and  _419
REMARK  167  A    between atoms: _419  and  _420
REMARK  168  A    between atoms: _423  and  _425
REMARK  169  A    between atoms: _425  and  _426
REMARK  170  A    between atoms: _425  and  _428
REMARK  171  A    between atoms: _431  and  _433
REMARK  172  A    between atoms: _433  and  _434
REMARK  173  A    between atoms: _436  and  _438
REMARK  174  A    between atoms: _438  and  _439
REMARK  175  A    between atoms: _438  and  _441
REMARK  176  A    between atoms: _445  and  _446
REMARK  177  A    between atoms: _451  and  _453
REMARK  178  A    between atoms: _453  and  _454
REMARK  179  A    between atoms: _453  and  _456
REMARK  180  A    between atoms: _456  and  _457
REMARK  181  A    between atoms: _460  and  _462
REMARK  182  A    between atoms: _462  and  _463
REMARK  183  A    between atoms: _462  and  _465
REMARK  184  A    between atoms: _468  and  _470
REMARK  185  A    between atoms: _470  and  _471
REMARK  186  A    between atoms: _470  and  _473
REMARK  187  A    between atoms: _473  and  _474
REMARK  188  A    between atoms: _474  and  _475
REMARK  189  A    between atoms: _475  and  _476
REMARK  190  A    between atoms: _485  and  _487
REMARK  191  A    between atoms: _487  and  _488
REMARK  192  A    between atoms: _487  and  _490
REMARK  193  A    between atoms: _490  and  _491
REMARK  194  A    between atoms: _491  and  _492
REMARK  195  A    between atoms: _495  and  _497
REMARK  196  A    between atoms: _497  and  _498
REMARK  197  A    between atoms: _497  and  _500
REMARK  198  A    between atoms: _500  and  _501
REMARK  199  A    between atoms: _504  and  _506
REMARK  200  A    between atoms: _506  and  _507
REMARK  201  A    between atoms: _510  and  _512
REMARK  202  A    between atoms: _512  and  _513
REMARK  203  A    between atoms: _512  and  _515
REMARK  204  A    between atoms: _515  and  _516
REMARK  205  A    between atoms: _516  and  _517
REMARK  206  A    between atoms: _519  and  _521
REMARK  207  A    between atoms: _521  and  _522
REMARK  208  A    between atoms: _521  and  _524
REMARK  209  A    between atoms: _524  and  _525
REMARK  210  A    between atoms: _527  and  _529
REMARK  211  A    between atoms: _529  and  _530
REMARK  212  A    between atoms: _529  and  _532
REMARK  213  A    between atoms: _532  and  _533
REMARK  214  A    between atoms: _535  and  _537
REMARK  215  A    between atoms: _537  and  _538
REMARK  216  A    between atoms: _537  and  _540
REMARK  217  A    between atoms: _540  and  _541
REMARK  218  A    between atoms: _541  and  _542
REMARK  219  A    between atoms: _542  and  _543
REMARK  220  A    between atoms: _552  and  _554
REMARK  221  A    between atoms: _554  and  _555
REMARK  222  A    between atoms: _554  and  _557
REMARK  223  A    between atoms: _557  and  _558
REMARK  224  A    between atoms: _563  and  _565
REMARK  225  A    between atoms: _565  and  _566
REMARK  226  A    between atoms: _565  and  _568
REMARK  227  A    between atoms: _568  and  _569
REMARK  228  A    between atoms: _572  and  _574
REMARK  229  A    between atoms: _574  and  _575
REMARK  230  A    between atoms: _574  and  _577
REMARK  231  A    between atoms: _577  and  _578
REMARK  232  A    between atoms: _581  and  _583
REMARK  233  A    between atoms: _583  and  _584
REMARK  234  A    between atoms: _583  and  _586
REMARK  235  A    between atoms: _586  and  _587
REMARK                            x       y       z     vdW  Elec       q    Type
REMARK                         _______ _______ _______ _____ _____    ______ ____
ROOT
ATOM      1  C   GLN A   1      22.656   7.359  11.861  0.00  0.00    +0.238 C 
ATOM      2  N   PHE A   2      23.369   8.283  12.510  0.00  0.00    -0.298 N 
ATOM      3  H   PHE A   2      22.922   8.798  13.296  0.00  0.00    +0.150 HD
ATOM      4  O   GLN A   1      23.037   6.814  10.799  0.00  0.00    -0.274 OA
ENDROOT
BRANCH   1   5
ATOM      5  CA  GLN A   1      21.301   6.992  12.505  0.00  0.00    +0.145 C 
BRANCH   5   6
ATOM      6  N   GLN A   1      20.995   7.820  13.681  0.00  0.00    -0.238 NA
ATOM      7  H   GLN A   1      20.553   8.754  13.560  0.00  0.00    +0.142 HD
ENDBRANCH   5   6
BRANCH   5   8
ATOM      8  CB  GLN A   1      20.179   7.047  11.490  0.00  0.00    +0.036 C 
BRANCH   8   9
ATOM      9  CG  GLN A   1      19.982   8.421  10.799  0.00  0.00    +0.087 C 
BRANCH   9  10
ATOM     10  CD  GLN A   1      18.630   8.457  10.079  0.00  0.00    +0.219 C 
ATOM     11  OE1 GLN A   1      17.585   8.480  10.726  0.00  0.00    -0.275 OA
ATOM     12  NE2 GLN A   1      18.654   8.423   8.736  0.00  0.00    -0.329 N 
ATOM     13 HE21 GLN A   1      19.564   8.404   8.232  0.00  0.00    +0.145 HD
ATOM     14 HE22 GLN A   1      17.763   8.415   8.200  0.00  0.00    +0.145 HD
ENDBRANCH   9  10
ENDBRANCH   8   9
ENDBRANCH   5   8
ENDBRANCH   1   5
BRANCH   2  15
ATOM     15  CA  PHE A   2      24.757   8.601  12.159  0.00  0.00    +0.141 C 
BRANCH  15  16
ATOM     16  C   PHE A   2      25.771   7.921  13.095  0.00  0.00    +0.227 C 
ATOM     17  O   PHE A   2      25.541   7.784  14.302  0.00  0.00    -0.286 OA
ENDBRANCH  15  16
BRANCH  15  18
ATOM     18  CB  PHE A   2      24.974  10.118  12.182  0.00  0.00    +0.054 C 
BRANCH  18  19
ATOM     19  CG  PHE A   2      24.161  10.869  11.160  0.00  0.00    -0.020 A 
ATOM     20  CD2 PHE A   2      22.826  11.216  11.422  0.00  0.00    -0.004 A 
ATOM     21  CE2 PHE A   2      22.075  11.916  10.498  0.00  0.00    -0.000 A 
ATOM     22  CZ  PHE A   2      22.639  12.281   9.271  0.00  0.00    -0.000 A 
ATOM     23  CE1 PHE A   2      23.966  11.950   8.986  0.00  0.00    -0.000 A 
ATOM     24  CD1 PHE A   2      24.724  11.241   9.940  0.00  0.00    -0.004 A 
ENDBRANCH  18  19
ENDBRANCH  15  18
ENDBRANCH   2  15
TORSDOF 9
REMARK  Name = ../refined-set-2016/3ioe/3ioe_pocket.pdb
REMARK  235 active torsions:
REMARK  status: ('A' for Active; 'I' for Inactive)
REMARK    1  A    between atoms: _1  and  _3
REMARK    2  A    between atoms: _3  and  _4
REMARK    3  A    between atoms: _3  and  _6
REMARK    4  A    between atoms: _10  and  _11
REMARK    5  A    between atoms: _16  and  _18
REMARK    6  A    between atoms: _18  and  _19
REMARK    7  A    between atoms: _18  and  _21
REMARK    8  A    between atoms: _21  and  _22
REMARK    9  A    between atoms: _25  and  _27
REMARK   10  A    between atoms: _27  and  _28
REMARK   11  A    between atoms: _27  and  _30
REMARK   12  A    between atoms: _30  and  _31
REMARK   13  A    between atoms: _31  and  _32
REMARK   14  A    between atoms: _34  and  _36
REMARK   15  A    between atoms: _36  and  _37
REMARK   16  A    between atoms: _39  and  _41
REMARK   17  A    between atoms: _41  and  _42
REMARK   18  A    between atoms: _45  and  _47
REMARK   19  A    between atoms: _47  and  _48
REMARK   20  A    between atoms: _47  and  _50
REMARK   21  A    between atoms: _50  and  _51
REMARK   22  A    between atoms: _54  and  _56
REMARK   23  A    between atoms: _56  and  _57
REMARK   24  A    between atoms: _56  and  _59
REMARK   25  A    between atoms: _59  and  _60
REMARK   26  A    between atoms: _65  and  _67
REMARK   27  A    between atoms: _67  and  _68
REMARK   28  A    between atoms: _67  and  _70
REMARK   29  A    between atoms: _70  and  _71
REMARK   30  A    between atoms: _71  and  _72
REMARK   31  A    between atoms: _75  and  _77
REMARK   32  A    between atoms: _77  and  _78
REMARK   33  A    between atoms: _80  and  _82
REMARK   34  A    between atoms: _82  and  _83
REMARK   35  A    between atoms: _82  and  _85
REMARK   36  A    between atoms: _85  and  _86
REMARK   37  A    between atoms: _91  and  _93
REMARK   38  A    between atoms: _93  and  _94
REMARK   39  A    between atoms: _93  and  _96
REMARK   40  A    between atoms: _96  and  _97
REMARK   41  A    between atoms: _100  and  _102
REMARK   42  A    between atoms: _102  and  _103
REMARK   43  A    between atoms: _106  and  _108
REMARK   44  A    between atoms: _108  and  _109
REMARK   45  A    between atoms: _108  and  _111
REMARK   46  A    between atoms: _111  and  _112
REMARK   47  A    between atoms: _115  and  _117
REMARK   48  A    between atoms: _117  and  _118
REMARK   49  A    between atoms: _117  and  _120
REMARK   50  A    between atoms: _123  and  _125
REMARK   51  A    between atoms: _125  and  _126
REMARK   52  A    between atoms: _125  and  _128
REMARK   53  A    between atoms: _128  and  _129
REMARK   54  A    between atoms: _131  and  _133
REMARK   55  A    between atoms: _133  and  _134
REMARK   56  A    between atoms: _133  and  _136
REMARK   57  A    between atoms: _136  and  _137
REMARK   58  A    between atoms: _140  and  _142
REMARK   59  A    between atoms: _142  and  _143
REMARK   60  A    between atoms: _142  and  _145
REMARK   61  A    between atoms: _145  and  _146
REMARK   62  A    between atoms: _152  and  _154
REMARK   63  A    between atoms: _154  and  _155
REMARK   64  A    between atoms: _154  and  _157
REMARK   65  A    between atoms: _160  and  _162
REMARK   66  A    between atoms: _162  and  _163
REMARK   67  A    between atoms: _162  and  _165
REMARK   68  A    between atoms: _165  and  _166
REMARK   69  A    between atoms: _172  and  _173
REMARK   70  A    between atoms: _178  and  _180
REMARK   71  A    between atoms: _180  and  _181
REMARK   72  A    between atoms: _180  and  _183
REMARK   73  A    between atoms: _183  and  _184
REMARK   74  A    between atoms: _184  and  _185
REMARK   75  A    between atoms: _190  and  _192
REMARK   76  A    between atoms: _192  and  _193
REMARK   77  A    between atoms: _192  and  _195
REMARK   78  A    between atoms: _195  and  _196
REMARK   79  A    between atoms: _202  and  _204
REMARK   80  A    between atoms: _204  and  _205
REMARK   81  A    between atoms: _204  and  _207
REMARK   82  A    between atoms: _207  and  _208
REMARK   83  A    between atoms: _213  and  _214
REMARK   84  A    between atoms: _216  and  _218
REMARK   85  A    between atoms: _218  and  _219
REMARK   86  A    between atoms: _218  and  _221
REMARK   87  A    between atoms: _221  and  _222
REMARK   88  A    between atoms: _227  and  _228
REMARK   89  A    between atoms: _230  and  _232
REMARK   90  A    between atoms: _232  and  _233
REMARK   91  A    between atoms: _232  and  _235
REMARK   92  A    between atoms: _235  and  _236
REMARK   93  A    between atoms: _241  and  _243
REMARK   94  A    between atoms: _243  and  _244
REMARK   95  A    between atoms: _243  and  _246
REMARK   96  A    between atoms: _246  and  _247
REMARK   97  A    between atoms: _253  and  _255
REMARK   98  A    between atoms: _255  and  _256
REMARK   99  A    between atoms: _258  and  _260
REMARK  100  A    between atoms: _260  and  _261
REMARK  101  A    between atoms: _260  and  _263
REMARK  102  A    between atoms: _266  and  _268
REMARK  103  A    between atoms: _268  and  _269
REMARK  104  A    between atoms: _268  and  _271
REMARK  105  A    between atoms: _271  and  _272
REMARK  106  A    between atoms: _275  and  _277
REMARK  107  A    between atoms: _277  and  _278
REMARK  108  A    between atoms: _277  and  _280
REMARK  109  A    between atoms: _280  and  _281
REMARK  110  A    between atoms: _284  and  _286
REMARK  111  A    between atoms: _286  and  _287
REMARK  112  A    between atoms: _286  and  _289
REMARK  113  A    between atoms: _292  and  _294
REMARK  114  A    between atoms: _294  and  _295
REMARK  115  A    between atoms: _294  and  _297
REMARK  116  A    between atoms: _300  and  _302
REMARK  117  A    between atoms: _302  and  _303
REMARK  118  A    between atoms: _302  and  _305
REMARK  119  A    between atoms: _305  and  _306
REMARK  120  A    between atoms: _309  and  _311
REMARK  121  A    between atoms: _311  and  _312
REMARK  122  A    between atoms: _311  and  _314
REMARK  123  A    between atoms: _314  and  _315
REMARK  124  A    between atoms: _318  and  _320
REMARK  125  A    between atoms: _320  and  _321
REMARK  126  A    between atoms: _320  and  _323
REMARK  127  A    between atoms: _323  and  _324
REMARK  128  A    between atoms: _330  and  _332
REMARK  129  A    between atoms: _332  and  _333
REMARK  130  A    between atoms: _332  and  _335
REMARK  131  A    between atoms: _335  and  _336
REMARK  132  A    between atoms: _342  and  _344
REMARK  133  A    between atoms: _344  and  _345
REMARK  134  A    between atoms: _347  and  _349
REMARK  135  A    between atoms: _349  and  _350
REMARK  136  A    between atoms: _349  and  _352
REMARK  137  A    between atoms: _352  and  _353
REMARK  138  A    between atoms: _353  and  _354
REMARK  139  A    between atoms: _357  and  _359
REMARK  140  A    between atoms: _359  and  _360
REMARK  141  A    between atoms: _359  and  _362
REMARK  142  A    between atoms: _362  and  _363
REMARK  143  A    between atoms: _363  and  _364
REMARK  144  A    between atoms: _364  and  _365
REMARK  145  A    between atoms: _365  and  _366
REMARK  146  A    between atoms: _370  and  _372
REMARK  147  A    between atoms: _372  and  _373
REMARK  148  A    between atoms: _372  and  _375
REMARK  149  A    between atoms: _375  and  _376
REMARK  150  A    between atoms: _379  and  _381
REMARK  151  A    between atoms: _381  and  _382
REMARK  152  A    between atoms: _381  and  _384
REMARK  153  A    between atoms: _384  and  _385
REMARK  154  A    between atoms: _390  and  _391
REMARK  155  A    between atoms: _393  and  _395
REMARK  156  A    between atoms: _395  and  _396
REMARK  157  A    between atoms: _395  and  _398
REMARK  158  A    between atoms: _398  and  _399
REMARK  159  A    between atoms: _399  and  _400
REMARK  160  A    between atoms: _405  and  _407
REMARK  161  A    between atoms: _407  and  _408
REMARK  162  A    between atoms: _407  and  _410
REMARK  163  A    between atoms: _410  and  _411
REMARK  164  A    between atoms: _414  and  _416
REMARK  165  A    between atoms: _416  and  _417
REMARK  166  A    between atoms: _416  and  _419
REMARK  167  A    between atoms: _419  and  _420
REMARK  168  A    between atoms: _423  and  _425
REMARK  169  A    between atoms: _425  and  _426
REMARK  170  A    between atoms: _425  and  _428
REMARK  171  A    between atoms: _431  and  _433
REMARK  172  A    between atoms: _433  and  _434
REMARK  173  A    between atoms: _436  and  _438
REMARK  174  A    between atoms: _438  and  _439
REMARK  175  A    between atoms: _438  and  _441
REMARK  176  A    between atoms: _445  and  _446
REMARK  177  A    between atoms: _451  and  _453
REMARK  178  A    between atoms: _453  and  _454
REMARK  179  A    between atoms: _453  and  _456
REMARK  180  A    between atoms: _456  and  _457
REMARK  181  A    between atoms: _460  and  _462
REMARK  182  A    between atoms: _462  and  _463
REMARK  183  A    between atoms: _462  and  _465
REMARK  184  A    between atoms: _468  and  _470
REMARK  185  A    between atoms: _470  and  _471
REMARK  186  A    between atoms: _470  and  _473
REMARK  187  A    between atoms: _473  and  _474
REMARK  188  A    between atoms: _474  and  _475
REMARK  189  A    between atoms: _475  and  _476
REMARK  190  A    between atoms: _485  and  _487
REMARK  191  A    between atoms: _487  and  _488
REMARK  192  A    between atoms: _487  and  _490
REMARK  193  A    between atoms: _490  and  _491
REMARK  194  A    between atoms: _491  and  _492
REMARK  195  A    between atoms: _495  and  _497
REMARK  196  A    between atoms: _497  and  _498
REMARK  197  A    between atoms: _497  and  _500
REMARK  198  A    between atoms: _500  and  _501
REMARK  199  A    between atoms: _504  and  _506
REMARK  200  A    between atoms: _506  and  _507
REMARK  201  A    between atoms: _510  and  _512
REMARK  202  A    between atoms: _512  and  _513
REMARK  203  A    between atoms: _512  and  _515
REMARK  204  A    between atoms: _515  and  _516
REMARK  205  A    between atoms: _516  and  _517
REMARK  206  A    between atoms: _519  and  _521
REMARK  207  A    between atoms: _521  and  _522
REMARK  208  A    between atoms: _521  and  _524
REMARK  209  A    between atoms: _524  and  _525
REMARK  210  A    between atoms: _527  and  _529
REMARK  211  A    between atoms: _529  and  _530
REMARK  212  A    between atoms: _529  and  _532
REMARK  213  A    between atoms: _532  and  _533
REMARK  214  A    between atoms: _535  and  _537
REMARK  215  A    between atoms: _537  and  _538
REMARK  216  A    between atoms: _537  and  _540
REMARK  217  A    between atoms: _540  and  _541
REMARK  218  A    between atoms: _541  and  _542
REMARK  219  A    between atoms: _542  and  _543
REMARK  220  A    between atoms: _552  and  _554
REMARK  221  A    between atoms: _554  and  _555
REMARK  222  A    between atoms: _554  and  _557
REMARK  223  A    between atoms: _557  and  _558
REMARK  224  A    between atoms: _563  and  _565
REMARK  225  A    between atoms: _565  and  _566
REMARK  226  A    between atoms: _565  and  _568
REMARK  227  A    between atoms: _568  and  _569
REMARK  228  A    between atoms: _572  and  _574
REMARK  229  A    between atoms: _574  and  _575
REMARK  230  A    between atoms: _574  and  _577
REMARK  231  A    between atoms: _577  and  _578
REMARK  232  A    between atoms: _581  and  _583
REMARK  233  A    between atoms: _583  and  _584
REMARK  234  A    between atoms: _583  and  _586
REMARK  235  A    between atoms: _586  and  _587
REMARK                            x       y       z     vdW  Elec       q    Type
REMARK                         _______ _______ _______ _____ _____    ______ ____
ROOT
ATOM      1  CG  TYR A   1      22.579  15.343   6.525  0.00  0.00    -0.020 A 
ATOM      2  CD2 TYR A   1      21.405  16.061   6.368  0.00  0.00    -0.001 A 
ATOM      3  CE2 TYR A   1      20.372  15.596   5.507  0.00  0.00    +0.036 A 
ATOM      4  CZ  TYR A   1      20.556  14.420   4.778  0.00  0.00    +0.134 A 
ATOM      5  CE1 TYR A   1      21.731  13.701   4.899  0.00  0.00    +0.036 A 
ATOM      6  CD1 TYR A   1      22.742  14.160   5.774  0.00  0.00    -0.001 A 
ENDROOT
BRANCH   4   7
ATOM      7  OH  TYR A   1      19.574  13.966   3.919  0.00  0.00    -0.506 OA
ATOM      8  HH  TYR A   1      19.875  13.126   3.491  0.00  0.00    +0.292 HD
ENDBRANCH   4   7
BRANCH   1   9
ATOM      9  CB  TYR A   1      23.687  15.846   7.421  0.00  0.00    +0.051 C 
BRANCH   9  10
ATOM     10  CA  TYR A   1      24.736  16.612   6.612  0.00  0.00    +0.137 C 
BRANCH  10  11
ATOM     11  N   TYR A   1      26.021  16.736   7.333  0.00  0.00    -0.239 NA
ATOM     12  H   TYR A   1      26.077  16.432   8.326  0.00  0.00    +0.142 HD
ENDBRANCH  10  11
BRANCH  10  13
ATOM     13  C   TYR A   1      24.200  18.003   6.284  0.00  0.00    +0.224 C 
ATOM     14  O   TYR A   1      24.217  18.864   7.169  0.00  0.00    -0.287 OA
ENDBRANCH  10  13
ENDBRANCH   9  10
ENDBRANCH   1   9
TORSDOF 5
REMARK  Name = ../refined-set-2016/3ioe/3ioe_pocket.pdb
REMARK  235 active torsions:
REMARK  status: ('A' for Active; 'I' for Inactive)
REMARK    1  A    between atoms: _1  and  _3
REMARK    2  A    between atoms: _3  and  _4
REMARK    3  A    between atoms: _3  and  _6
REMARK    4  A    between atoms: _10  and  _11
REMARK    5  A    between atoms: _16  and  _18
REMARK    6  A    between atoms: _18  and  _19
REMARK    7  A    between atoms: _18  and  _21
REMARK    8  A    between atoms: _21  and  _22
REMARK    9  A    between atoms: _25  and  _27
REMARK   10  A    between atoms: _27  and  _28
REMARK   11  A    between atoms: _27  and  _30
REMARK   12  A    between atoms: _30  and  _31
REMARK   13  A    between atoms: _31  and  _32
REMARK   14  A    between atoms: _34  and  _36
REMARK   15  A    between atoms: _36  and  _37
REMARK   16  A    between atoms: _39  and  _41
REMARK   17  A    between atoms: _41  and  _42
REMARK   18  A    between atoms: _45  and  _47
REMARK   19  A    between atoms: _47  and  _48
REMARK   20  A    between atoms: _47  and  _50
REMARK   21  A    between atoms: _50  and  _51
REMARK   22  A    between atoms: _54  and  _56
REMARK   23  A    between atoms: _56  and  _57
REMARK   24  A    between atoms: _56  and  _59
REMARK   25  A    between atoms: _59  and  _60
REMARK   26  A    between atoms: _65  and  _67
REMARK   27  A    between atoms: _67  and  _68
REMARK   28  A    between atoms: _67  and  _70
REMARK   29  A    between atoms: _70  and  _71
REMARK   30  A    between atoms: _71  and  _72
REMARK   31  A    between atoms: _75  and  _77
REMARK   32  A    between atoms: _77  and  _78
REMARK   33  A    between atoms: _80  and  _82
REMARK   34  A    between atoms: _82  and  _83
REMARK   35  A    between atoms: _82  and  _85
REMARK   36  A    between atoms: _85  and  _86
REMARK   37  A    between atoms: _91  and  _93
REMARK   38  A    between atoms: _93  and  _94
REMARK   39  A    between atoms: _93  and  _96
REMARK   40  A    between atoms: _96  and  _97
REMARK   41  A    between atoms: _100  and  _102
REMARK   42  A    between atoms: _102  and  _103
REMARK   43  A    between atoms: _106  and  _108
REMARK   44  A    between atoms: _108  and  _109
REMARK   45  A    between atoms: _108  and  _111
REMARK   46  A    between atoms: _111  and  _112
REMARK   47  A    between atoms: _115  and  _117
REMARK   48  A    between atoms: _117  and  _118
REMARK   49  A    between atoms: _117  and  _120
REMARK   50  A    between atoms: _123  and  _125
REMARK   51  A    between atoms: _125  and  _126
REMARK   52  A    between atoms: _125  and  _128
REMARK   53  A    between atoms: _128  and  _129
REMARK   54  A    between atoms: _131  and  _133
REMARK   55  A    between atoms: _133  and  _134
REMARK   56  A    between atoms: _133  and  _136
REMARK   57  A    between atoms: _136  and  _137
REMARK   58  A    between atoms: _140  and  _142
REMARK   59  A    between atoms: _142  and  _143
REMARK   60  A    between atoms: _142  and  _145
REMARK   61  A    between atoms: _145  and  _146
REMARK   62  A    between atoms: _152  and  _154
REMARK   63  A    between atoms: _154  and  _155
REMARK   64  A    between atoms: _154  and  _157
REMARK   65  A    between atoms: _160  and  _162
REMARK   66  A    between atoms: _162  and  _163
REMARK   67  A    between atoms: _162  and  _165
REMARK   68  A    between atoms: _165  and  _166
REMARK   69  A    between atoms: _172  and  _173
REMARK   70  A    between atoms: _178  and  _180
REMARK   71  A    between atoms: _180  and  _181
REMARK   72  A    between atoms: _180  and  _183
REMARK   73  A    between atoms: _183  and  _184
REMARK   74  A    between atoms: _184  and  _185
REMARK   75  A    between atoms: _190  and  _192
REMARK   76  A    between atoms: _192  and  _193
REMARK   77  A    between atoms: _192  and  _195
REMARK   78  A    between atoms: _195  and  _196
REMARK   79  A    between atoms: _202  and  _204
REMARK   80  A    between atoms: _204  and  _205
REMARK   81  A    between atoms: _204  and  _207
REMARK   82  A    between atoms: _207  and  _208
REMARK   83  A    between atoms: _213  and  _214
REMARK   84  A    between atoms: _216  and  _218
REMARK   85  A    between atoms: _218  and  _219
REMARK   86  A    between atoms: _218  and  _221
REMARK   87  A    between atoms: _221  and  _222
REMARK   88  A    between atoms: _227  and  _228
REMARK   89  A    between atoms: _230  and  _232
REMARK   90  A    between atoms: _232  and  _233
REMARK   91  A    between atoms: _232  and  _235
REMARK   92  A    between atoms: _235  and  _236
REMARK   93  A    between atoms: _241  and  _243
REMARK   94  A    between atoms: _243  and  _244
REMARK   95  A    between atoms: _243  and  _246
REMARK   96  A    between atoms: _246  and  _247
REMARK   97  A    between atoms: _253  and  _255
REMARK   98  A    between atoms: _255  and  _256
REMARK   99  A    between atoms: _258  and  _260
REMARK  100  A    between atoms: _260  and  _261
REMARK  101  A    between atoms: _260  and  _263
REMARK  102  A    between atoms: _266  and  _268
REMARK  103  A    between atoms: _268  and  _269
REMARK  104  A    between atoms: _268  and  _271
REMARK  105  A    between atoms: _271  and  _272
REMARK  106  A    between atoms: _275  and  _277
REMARK  107  A    between atoms: _277  and  _278
REMARK  108  A    between atoms: _277  and  _280
REMARK  109  A    between atoms: _280  and  _281
REMARK  110  A    between atoms: _284  and  _286
REMARK  111  A    between atoms: _286  and  _287
REMARK  112  A    between atoms: _286  and  _289
REMARK  113  A    between atoms: _292  and  _294
REMARK  114  A    between atoms: _294  and  _295
REMARK  115  A    between atoms: _294  and  _297
REMARK  116  A    between atoms: _300  and  _302
REMARK  117  A    between atoms: _302  and  _303
REMARK  118  A    between atoms: _302  and  _305
REMARK  119  A    between atoms: _305  and  _306
REMARK  120  A    between atoms: _309  and  _311
REMARK  121  A    between atoms: _311  and  _312
REMARK  122  A    between atoms: _311  and  _314
REMARK  123  A    between atoms: _314  and  _315
REMARK  124  A    between atoms: _318  and  _320
REMARK  125  A    between atoms: _320  and  _321
REMARK  126  A    between atoms: _320  and  _323
REMARK  127  A    between atoms: _323  and  _324
REMARK  128  A    between atoms: _330  and  _332
REMARK  129  A    between atoms: _332  and  _333
REMARK  130  A    between atoms: _332  and  _335
REMARK  131  A    between atoms: _335  and  _336
REMARK  132  A    between atoms: _342  and  _344
REMARK  133  A    between atoms: _344  and  _345
REMARK  134  A    between atoms: _347  and  _349
REMARK  135  A    between atoms: _349  and  _350
REMARK  136  A    between atoms: _349  and  _352
REMARK  137  A    between atoms: _352  and  _353
REMARK  138  A    between atoms: _353  and  _354
REMARK  139  A    between atoms: _357  and  _359
REMARK  140  A    between atoms: _359  and  _360
REMARK  141  A    between atoms: _359  and  _362
REMARK  142  A    between atoms: _362  and  _363
REMARK  143  A    between atoms: _363  and  _364
REMARK  144  A    between atoms: _364  and  _365
REMARK  145  A    between atoms: _365  and  _366
REMARK  146  A    between atoms: _370  and  _372
REMARK  147  A    between atoms: _372  and  _373
REMARK  148  A    between atoms: _372  and  _375
REMARK  149  A    between atoms: _375  and  _376
REMARK  150  A    between atoms: _379  and  _381
REMARK  151  A    between atoms: _381  and  _382
REMARK  152  A    between atoms: _381  and  _384
REMARK  153  A    between atoms: _384  and  _385
REMARK  154  A    between atoms: _390  and  _391
REMARK  155  A    between atoms: _393  and  _395
REMARK  156  A    between atoms: _395  and  _396
REMARK  157  A    between atoms: _395  and  _398
REMARK  158  A    between atoms: _398  and  _399
REMARK  159  A    between atoms: _399  and  _400
REMARK  160  A    between atoms: _405  and  _407
REMARK  161  A    between atoms: _407  and  _408
REMARK  162  A    between atoms: _407  and  _410
REMARK  163  A    between atoms: _410  and  _411
REMARK  164  A    between atoms: _414  and  _416
REMARK  165  A    between atoms: _416  and  _417
REMARK  166  A    between atoms: _416  and  _419
REMARK  167  A    between atoms: _419  and  _420
REMARK  168  A    between atoms: _423  and  _425
REMARK  169  A    between atoms: _425  and  _426
REMARK  170  A    between atoms: _425  and  _428
REMARK  171  A    between atoms: _431  and  _433
REMARK  172  A    between atoms: _433  and  _434
REMARK  173  A    between atoms: _436  and  _438
REMARK  174  A    between atoms: _438  and  _439
REMARK  175  A    between atoms: _438  and  _441
REMARK  176  A    between atoms: _445  and  _446
REMARK  177  A    between atoms: _451  and  _453
REMARK  178  A    between atoms: _453  and  _454
REMARK  179  A    between atoms: _453  and  _456
REMARK  180  A    between atoms: _456  and  _457
REMARK  181  A    between atoms: _460  and  _462
REMARK  182  A    between atoms: _462  and  _463
REMARK  183  A    between atoms: _462  and  _465
REMARK  184  A    between atoms: _468  and  _470
REMARK  185  A    between atoms: _470  and  _471
REMARK  186  A    between atoms: _470  and  _473
REMARK  187  A    between atoms: _473  and  _474
REMARK  188  A    between atoms: _474  and  _475
REMARK  189  A    between atoms: _475  and  _476
REMARK  190  A    between atoms: _485  and  _487
REMARK  191  A    between atoms: _487  and  _488
REMARK  192  A    between atoms: _487  and  _490
REMARK  193  A    between atoms: _490  and  _491
REMARK  194  A    between atoms: _491  and  _492
REMARK  195  A    between atoms: _495  and  _497
REMARK  196  A    between atoms: _497  and  _498
REMARK  197  A    between atoms: _497  and  _500
REMARK  198  A    between atoms: _500  and  _501
REMARK  199  A    between atoms: _504  and  _506
REMARK  200  A    between atoms: _506  and  _507
REMARK  201  A    between atoms: _510  and  _512
REMARK  202  A    between atoms: _512  and  _513
REMARK  203  A    between atoms: _512  and  _515
REMARK  204  A    between atoms: _515  and  _516
REMARK  205  A    between atoms: _516  and  _517
REMARK  206  A    between atoms: _519  and  _521
REMARK  207  A    between atoms: _521  and  _522
REMARK  208  A    between atoms: _521  and  _524
REMARK  209  A    between atoms: _524  and  _525
REMARK  210  A    between atoms: _527  and  _529
REMARK  211  A    between atoms: _529  and  _530
REMARK  212  A    between atoms: _529  and  _532
REMARK  213  A    between atoms: _532  and  _533
REMARK  214  A    between atoms: _535  and  _537
REMARK  215  A    between atoms: _537  and  _538
REMARK  216  A    between atoms: _537  and  _540
REMARK  217  A    between atoms: _540  and  _541
REMARK  218  A    between atoms: _541  and  _542
REMARK  219  A    between atoms: _542  and  _543
REMARK  220  A    between atoms: _552  and  _554
REMARK  221  A    between atoms: _554  and  _555
REMARK  222  A    between atoms: _554  and  _557
REMARK  223  A    between atoms: _557  and  _558
REMARK  224  A    between atoms: _563  and  _565
REMARK  225  A    between atoms: _565  and  _566
REMARK  226  A    between atoms: _565  and  _568
REMARK  227  A    between atoms: _568  and  _569
REMARK  228  A    between atoms: _572  and  _574
REMARK  229  A    between atoms: _574  and  _575
REMARK  230  A    between atoms: _574  and  _577
REMARK  231  A    between atoms: _577  and  _578
REMARK  232  A    between atoms: _581  and  _583
REMARK  233  A    between atoms: _583  and  _584
REMARK  234  A    between atoms: _583  and  _586
REMARK  235  A    between atoms: _586  and  _587
REMARK                            x       y       z     vdW  Elec       q    Type
REMARK                         _______ _______ _______ _____ _____    ______ ____
ROOT
ATOM      1  CG  TYR A   1      16.958  11.242  20.768  0.00  0.00    -0.020 A 
ATOM      2  CD2 TYR A   1      16.600   9.885  20.794  0.00  0.00    -0.001 A 
ATOM      3  CE2 TYR A   1      16.451   9.158  19.645  0.00  0.00    +0.036 A 
ATOM      4  CZ  TYR A   1      16.565   9.790  18.428  0.00  0.00    +0.134 A 
ATOM      5  CE1 TYR A   1      16.890  11.136  18.349  0.00  0.00    +0.036 A 
ATOM      6  CD1 TYR A   1      17.083  11.859  19.532  0.00  0.00    -0.001 A 
ENDROOT
BRANCH   4   7
ATOM      7  OH  TYR A   1      16.363   9.039  17.317  0.00  0.00    -0.506 OA
ATOM      8  HH  TYR A   1      17.185   9.039  16.766  0.00  0.00    +0.292 HD
ENDBRANCH   4   7
BRANCH   1   9
ATOM      9  CB  TYR A   1      17.127  12.010  22.055  0.00  0.00    +0.051 C 
BRANCH   9  10
ATOM     10  CA  TYR A   1      15.784  12.199  22.811  0.00  0.00    +0.137 C 
BRANCH  10  11
ATOM     11  N   TYR A   1      14.860  13.026  22.018  0.00  0.00    -0.239 NA
ATOM     12  H   TYR A   1      15.060  14.043  21.932  0.00  0.00    +0.142 HD
ENDBRANCH  10  11
BRANCH  10  13
ATOM     13  C   TYR A   1      16.020  12.817  24.189  0.00  0.00    +0.224 C 
ATOM     14  O   TYR A   1      17.175  13.017  24.569  0.00  0.00    -0.287 OA
ENDBRANCH  10  13
ENDBRANCH   9  10
ENDBRANCH   1   9
TORSDOF 5
REMARK  Name = ../refined-set-2016/3ioe/3ioe_pocket.pdb
REMARK  235 active torsions:
REMARK  status: ('A' for Active; 'I' for Inactive)
REMARK    1  A    between atoms: _1  and  _3
REMARK    2  A    between atoms: _3  and  _4
REMARK    3  A    between atoms: _3  and  _6
REMARK    4  A    between atoms: _10  and  _11
REMARK    5  A    between atoms: _16  and  _18
REMARK    6  A    between atoms: _18  and  _19
REMARK    7  A    between atoms: _18  and  _21
REMARK    8  A    between atoms: _21  and  _22
REMARK    9  A    between atoms: _25  and  _27
REMARK   10  A    between atoms: _27  and  _28
REMARK   11  A    between atoms: _27  and  _30
REMARK   12  A    between atoms: _30  and  _31
REMARK   13  A    between atoms: _31  and  _32
REMARK   14  A    between atoms: _34  and  _36
REMARK   15  A    between atoms: _36  and  _37
REMARK   16  A    between atoms: _39  and  _41
REMARK   17  A    between atoms: _41  and  _42
REMARK   18  A    between atoms: _45  and  _47
REMARK   19  A    between atoms: _47  and  _48
REMARK   20  A    between atoms: _47  and  _50
REMARK   21  A    between atoms: _50  and  _51
REMARK   22  A    between atoms: _54  and  _56
REMARK   23  A    between atoms: _56  and  _57
REMARK   24  A    between atoms: _56  and  _59
REMARK   25  A    between atoms: _59  and  _60
REMARK   26  A    between atoms: _65  and  _67
REMARK   27  A    between atoms: _67  and  _68
REMARK   28  A    between atoms: _67  and  _70
REMARK   29  A    between atoms: _70  and  _71
REMARK   30  A    between atoms: _71  and  _72
REMARK   31  A    between atoms: _75  and  _77
REMARK   32  A    between atoms: _77  and  _78
REMARK   33  A    between atoms: _80  and  _82
REMARK   34  A    between atoms: _82  and  _83
REMARK   35  A    between atoms: _82  and  _85
REMARK   36  A    between atoms: _85  and  _86
REMARK   37  A    between atoms: _91  and  _93
REMARK   38  A    between atoms: _93  and  _94
REMARK   39  A    between atoms: _93  and  _96
REMARK   40  A    between atoms: _96  and  _97
REMARK   41  A    between atoms: _100  and  _102
REMARK   42  A    between atoms: _102  and  _103
REMARK   43  A    between atoms: _106  and  _108
REMARK   44  A    between atoms: _108  and  _109
REMARK   45  A    between atoms: _108  and  _111
REMARK   46  A    between atoms: _111  and  _112
REMARK   47  A    between atoms: _115  and  _117
REMARK   48  A    between atoms: _117  and  _118
REMARK   49  A    between atoms: _117  and  _120
REMARK   50  A    between atoms: _123  and  _125
REMARK   51  A    between atoms: _125  and  _126
REMARK   52  A    between atoms: _125  and  _128
REMARK   53  A    between atoms: _128  and  _129
REMARK   54  A    between atoms: _131  and  _133
REMARK   55  A    between atoms: _133  and  _134
REMARK   56  A    between atoms: _133  and  _136
REMARK   57  A    between atoms: _136  and  _137
REMARK   58  A    between atoms: _140  and  _142
REMARK   59  A    between atoms: _142  and  _143
REMARK   60  A    between atoms: _142  and  _145
REMARK   61  A    between atoms: _145  and  _146
REMARK   62  A    between atoms: _152  and  _154
REMARK   63  A    between atoms: _154  and  _155
REMARK   64  A    between atoms: _154  and  _157
REMARK   65  A    between atoms: _160  and  _162
REMARK   66  A    between atoms: _162  and  _163
REMARK   67  A    between atoms: _162  and  _165
REMARK   68  A    between atoms: _165  and  _166
REMARK   69  A    between atoms: _172  and  _173
REMARK   70  A    between atoms: _178  and  _180
REMARK   71  A    between atoms: _180  and  _181
REMARK   72  A    between atoms: _180  and  _183
REMARK   73  A    between atoms: _183  and  _184
REMARK   74  A    between atoms: _184  and  _185
REMARK   75  A    between atoms: _190  and  _192
REMARK   76  A    between atoms: _192  and  _193
REMARK   77  A    between atoms: _192  and  _195
REMARK   78  A    between atoms: _195  and  _196
REMARK   79  A    between atoms: _202  and  _204
REMARK   80  A    between atoms: _204  and  _205
REMARK   81  A    between atoms: _204  and  _207
REMARK   82  A    between atoms: _207  and  _208
REMARK   83  A    between atoms: _213  and  _214
REMARK   84  A    between atoms: _216  and  _218
REMARK   85  A    between atoms: _218  and  _219
REMARK   86  A    between atoms: _218  and  _221
REMARK   87  A    between atoms: _221  and  _222
REMARK   88  A    between atoms: _227  and  _228
REMARK   89  A    between atoms: _230  and  _232
REMARK   90  A    between atoms: _232  and  _233
REMARK   91  A    between atoms: _232  and  _235
REMARK   92  A    between atoms: _235  and  _236
REMARK   93  A    between atoms: _241  and  _243
REMARK   94  A    between atoms: _243  and  _244
REMARK   95  A    between atoms: _243  and  _246
REMARK   96  A    between atoms: _246  and  _247
REMARK   97  A    between atoms: _253  and  _255
REMARK   98  A    between atoms: _255  and  _256
REMARK   99  A    between atoms: _258  and  _260
REMARK  100  A    between atoms: _260  and  _261
REMARK  101  A    between atoms: _260  and  _263
REMARK  102  A    between atoms: _266  and  _268
REMARK  103  A    between atoms: _268  and  _269
REMARK  104  A    between atoms: _268  and  _271
REMARK  105  A    between atoms: _271  and  _272
REMARK  106  A    between atoms: _275  and  _277
REMARK  107  A    between atoms: _277  and  _278
REMARK  108  A    between atoms: _277  and  _280
REMARK  109  A    between atoms: _280  and  _281
REMARK  110  A    between atoms: _284  and  _286
REMARK  111  A    between atoms: _286  and  _287
REMARK  112  A    between atoms: _286  and  _289
REMARK  113  A    between atoms: _292  and  _294
REMARK  114  A    between atoms: _294  and  _295
REMARK  115  A    between atoms: _294  and  _297
REMARK  116  A    between atoms: _300  and  _302
REMARK  117  A    between atoms: _302  and  _303
REMARK  118  A    between atoms: _302  and  _305
REMARK  119  A    between atoms: _305  and  _306
REMARK  120  A    between atoms: _309  and  _311
REMARK  121  A    between atoms: _311  and  _312
REMARK  122  A    between atoms: _311  and  _314
REMARK  123  A    between atoms: _314  and  _315
REMARK  124  A    between atoms: _318  and  _320
REMARK  125  A    between atoms: _320  and  _321
REMARK  126  A    between atoms: _320  and  _323
REMARK  127  A    between atoms: _323  and  _324
REMARK  128  A    between atoms: _330  and  _332
REMARK  129  A    between atoms: _332  and  _333
REMARK  130  A    between atoms: _332  and  _335
REMARK  131  A    between atoms: _335  and  _336
REMARK  132  A    between atoms: _342  and  _344
REMARK  133  A    between atoms: _344  and  _345
REMARK  134  A    between atoms: _347  and  _349
REMARK  135  A    between atoms: _349  and  _350
REMARK  136  A    between atoms: _349  and  _352
REMARK  137  A    between atoms: _352  and  _353
REMARK  138  A    between atoms: _353  and  _354
REMARK  139  A    between atoms: _357  and  _359
REMARK  140  A    between atoms: _359  and  _360
REMARK  141  A    between atoms: _359  and  _362
REMARK  142  A    between atoms: _362  and  _363
REMARK  143  A    between atoms: _363  and  _364
REMARK  144  A    between atoms: _364  and  _365
REMARK  145  A    between atoms: _365  and  _366
REMARK  146  A    between atoms: _370  and  _372
REMARK  147  A    between atoms: _372  and  _373
REMARK  148  A    between atoms: _372  and  _375
REMARK  149  A    between atoms: _375  and  _376
REMARK  150  A    between atoms: _379  and  _381
REMARK  151  A    between atoms: _381  and  _382
REMARK  152  A    between atoms: _381  and  _384
REMARK  153  A    between atoms: _384  and  _385
REMARK  154  A    between atoms: _390  and  _391
REMARK  155  A    between atoms: _393  and  _395
REMARK  156  A    between atoms: _395  and  _396
REMARK  157  A    between atoms: _395  and  _398
REMARK  158  A    between atoms: _398  and  _399
REMARK  159  A    between atoms: _399  and  _400
REMARK  160  A    between atoms: _405  and  _407
REMARK  161  A    between atoms: _407  and  _408
REMARK  162  A    between atoms: _407  and  _410
REMARK  163  A    between atoms: _410  and  _411
REMARK  164  A    between atoms: _414  and  _416
REMARK  165  A    between atoms: _416  and  _417
REMARK  166  A    between atoms: _416  and  _419
REMARK  167  A    between atoms: _419  and  _420
REMARK  168  A    between atoms: _423  and  _425
REMARK  169  A    between atoms: _425  and  _426
REMARK  170  A    between atoms: _425  and  _428
REMARK  171  A    between atoms: _431  and  _433
REMARK  172  A    between atoms: _433  and  _434
REMARK  173  A    between atoms: _436  and  _438
REMARK  174  A    between atoms: _438  and  _439
REMARK  175  A    between atoms: _438  and  _441
REMARK  176  A    between atoms: _445  and  _446
REMARK  177  A    between atoms: _451  and  _453
REMARK  178  A    between atoms: _453  and  _454
REMARK  179  A    between atoms: _453  and  _456
REMARK  180  A    between atoms: _456  and  _457
REMARK  181  A    between atoms: _460  and  _462
REMARK  182  A    between atoms: _462  and  _463
REMARK  183  A    between atoms: _462  and  _465
REMARK  184  A    between atoms: _468  and  _470
REMARK  185  A    between atoms: _470  and  _471
REMARK  186  A    between atoms: _470  and  _473
REMARK  187  A    between atoms: _473  and  _474
REMARK  188  A    between atoms: _474  and  _475
REMARK  189  A    between atoms: _475  and  _476
REMARK  190  A    between atoms: _485  and  _487
REMARK  191  A    between atoms: _487  and  _488
REMARK  192  A    between atoms: _487  and  _490
REMARK  193  A    between atoms: _490  and  _491
REMARK  194  A    between atoms: _491  and  _492
REMARK  195  A    between atoms: _495  and  _497
REMARK  196  A    between atoms: _497  and  _498
REMARK  197  A    between atoms: _497  and  _500
REMARK  198  A    between atoms: _500  and  _501
REMARK  199  A    between atoms: _504  and  _506
REMARK  200  A    between atoms: _506  and  _507
REMARK  201  A    between atoms: _510  and  _512
REMARK  202  A    between atoms: _512  and  _513
REMARK  203  A    between atoms: _512  and  _515
REMARK  204  A    between atoms: _515  and  _516
REMARK  205  A    between atoms: _516  and  _517
REMARK  206  A    between atoms: _519  and  _521
REMARK  207  A    between atoms: _521  and  _522
REMARK  208  A    between atoms: _521  and  _524
REMARK  209  A    between atoms: _524  and  _525
REMARK  210  A    between atoms: _527  and  _529
REMARK  211  A    between atoms: _529  and  _530
REMARK  212  A    between atoms: _529  and  _532
REMARK  213  A    between atoms: _532  and  _533
REMARK  214  A    between atoms: _535  and  _537
REMARK  215  A    between atoms: _537  and  _538
REMARK  216  A    between atoms: _537  and  _540
REMARK  217  A    between atoms: _540  and  _541
REMARK  218  A    between atoms: _541  and  _542
REMARK  219  A    between atoms: _542  and  _543
REMARK  220  A    between atoms: _552  and  _554
REMARK  221  A    between atoms: _554  and  _555
REMARK  222  A    between atoms: _554  and  _557
REMARK  223  A    between atoms: _557  and  _558
REMARK  224  A    between atoms: _563  and  _565
REMARK  225  A    between atoms: _565  and  _566
REMARK  226  A    between atoms: _565  and  _568
REMARK  227  A    between atoms: _568  and  _569
REMARK  228  A    between atoms: _572  and  _574
REMARK  229  A    between atoms: _574  and  _575
REMARK  230  A    between atoms: _574  and  _577
REMARK  231  A    between atoms: _577  and  _578
REMARK  232  A    between atoms: _581  and  _583
REMARK  233  A    between atoms: _583  and  _584
REMARK  234  A    between atoms: _583  and  _586
REMARK  235  A    between atoms: _586  and  _587
REMARK                            x       y       z     vdW  Elec       q    Type
REMARK                         _______ _______ _______ _____ _____    ______ ____
ROOT
ATOM      1  C   HIS A   1      21.209   2.533  11.395  0.00  0.00    +0.239 C 
ATOM      2  O   HIS A   1      20.450   3.476  11.646  0.00  0.00    -0.274 OA
ATOM      3  N   PHE A   2      20.759   1.322  11.083  0.00  0.00    -0.298 N 
ATOM      4  H   PHE A   2      21.423   0.531  10.960  0.00  0.00    +0.150 HD
ENDROOT
BRANCH   1   5
ATOM      5  CA  HIS A   1      22.740   2.727  11.394  0.00  0.00    +0.151 C 
BRANCH   5   6
ATOM      6  N   HIS A   1      23.415   1.782  12.244  0.00  0.00    -0.238 NA
ATOM      7  H   HIS A   1      24.110   1.128  11.830  0.00  0.00    +0.142 HD
ENDBRANCH   5   6
BRANCH   5   8
ATOM      8  CB  HIS A   1      23.250   2.687   9.948  0.00  0.00    +0.074 C 
BRANCH   8   9
ATOM      9  CG  HIS A   1      22.448   3.554   9.031  0.00  0.00    +0.082 A 
ATOM     10  ND1 HIS A   1      22.416   4.924   9.154  0.00  0.00    -0.227 NA
ATOM     11  CE1 HIS A   1      21.578   5.428   8.269  0.00  0.00    +0.199 A 
ATOM     12  NE2 HIS A   1      21.069   4.429   7.571  0.00  0.00    -0.221 NA
ATOM     13  CD2 HIS A   1      21.595   3.249   8.024  0.00  0.00    +0.115 A 
ENDBRANCH   8   9
ENDBRANCH   5   8
ENDBRANCH   1   5
BRANCH   3  14
ATOM     14  CA  PHE A   2      19.327   1.112  10.915  0.00  0.00    +0.141 C 
BRANCH  14  15
ATOM     15  C   PHE A   2      18.566   1.060  12.240  0.00  0.00    +0.227 C 
ATOM     16  O   PHE A   2      17.377   1.352  12.280  0.00  0.00    -0.286 OA
ENDBRANCH  14  15
BRANCH  14  17
ATOM     17  CB  PHE A   2      19.070  -0.116  10.045  0.00  0.00    +0.054 C 
BRANCH  17  18
ATOM     18  CG  PHE A   2      19.337   0.135   8.594  0.00  0.00    -0.020 A 
ATOM     19  CD2 PHE A   2      20.393  -0.518   7.947  0.00  0.00    -0.004 A 
ATOM     20  CE2 PHE A   2      20.672  -0.271   6.600  0.00  0.00    -0.000 A 
ATOM     21  CZ  PHE A   2      19.892   0.662   5.904  0.00  0.00    -0.000 A 
ATOM     22  CE1 PHE A   2      18.847   1.341   6.553  0.00  0.00    -0.000 A 
ATOM     23  CD1 PHE A   2      18.585   1.093   7.896  0.00  0.00    -0.004 A 
ENDBRANCH  17  18
ENDBRANCH  14  17
ENDBRANCH   3  14
TORSDOF 8
REMARK  Name = ../refined-set-2016/3ioe/3ioe_pocket.pdb
REMARK  235 active torsions:
REMARK  status: ('A' for Active; 'I' for Inactive)
REMARK    1  A    between atoms: _1  and  _3
REMARK    2  A    between atoms: _3  and  _4
REMARK    3  A    between atoms: _3  and  _6
REMARK    4  A    between atoms: _10  and  _11
REMARK    5  A    between atoms: _16  and  _18
REMARK    6  A    between atoms: _18  and  _19
REMARK    7  A    between atoms: _18  and  _21
REMARK    8  A    between atoms: _21  and  _22
REMARK    9  A    between atoms: _25  and  _27
REMARK   10  A    between atoms: _27  and  _28
REMARK   11  A    between atoms: _27  and  _30
REMARK   12  A    between atoms: _30  and  _31
REMARK   13  A    between atoms: _31  and  _32
REMARK   14  A    between atoms: _34  and  _36
REMARK   15  A    between atoms: _36  and  _37
REMARK   16  A    between atoms: _39  and  _41
REMARK   17  A    between atoms: _41  and  _42
REMARK   18  A    between atoms: _45  and  _47
REMARK   19  A    between atoms: _47  and  _48
REMARK   20  A    between atoms: _47  and  _50
REMARK   21  A    between atoms: _50  and  _51
REMARK   22  A    between atoms: _54  and  _56
REMARK   23  A    between atoms: _56  and  _57
REMARK   24  A    between atoms: _56  and  _59
REMARK   25  A    between atoms: _59  and  _60
REMARK   26  A    between atoms: _65  and  _67
REMARK   27  A    between atoms: _67  and  _68
REMARK   28  A    between atoms: _67  and  _70
REMARK   29  A    between atoms: _70  and  _71
REMARK   30  A    between atoms: _71  and  _72
REMARK   31  A    between atoms: _75  and  _77
REMARK   32  A    between atoms: _77  and  _78
REMARK   33  A    between atoms: _80  and  _82
REMARK   34  A    between atoms: _82  and  _83
REMARK   35  A    between atoms: _82  and  _85
REMARK   36  A    between atoms: _85  and  _86
REMARK   37  A    between atoms: _91  and  _93
REMARK   38  A    between atoms: _93  and  _94
REMARK   39  A    between atoms: _93  and  _96
REMARK   40  A    between atoms: _96  and  _97
REMARK   41  A    between atoms: _100  and  _102
REMARK   42  A    between atoms: _102  and  _103
REMARK   43  A    between atoms: _106  and  _108
REMARK   44  A    between atoms: _108  and  _109
REMARK   45  A    between atoms: _108  and  _111
REMARK   46  A    between atoms: _111  and  _112
REMARK   47  A    between atoms: _115  and  _117
REMARK   48  A    between atoms: _117  and  _118
REMARK   49  A    between atoms: _117  and  _120
REMARK   50  A    between atoms: _123  and  _125
REMARK   51  A    between atoms: _125  and  _126
REMARK   52  A    between atoms: _125  and  _128
REMARK   53  A    between atoms: _128  and  _129
REMARK   54  A    between atoms: _131  and  _133
REMARK   55  A    between atoms: _133  and  _134
REMARK   56  A    between atoms: _133  and  _136
REMARK   57  A    between atoms: _136  and  _137
REMARK   58  A    between atoms: _140  and  _142
REMARK   59  A    between atoms: _142  and  _143
REMARK   60  A    between atoms: _142  and  _145
REMARK   61  A    between atoms: _145  and  _146
REMARK   62  A    between atoms: _152  and  _154
REMARK   63  A    between atoms: _154  and  _155
REMARK   64  A    between atoms: _154  and  _157
REMARK   65  A    between atoms: _160  and  _162
REMARK   66  A    between atoms: _162  and  _163
REMARK   67  A    between atoms: _162  and  _165
REMARK   68  A    between atoms: _165  and  _166
REMARK   69  A    between atoms: _172  and  _173
REMARK   70  A    between atoms: _178  and  _180
REMARK   71  A    between atoms: _180  and  _181
REMARK   72  A    between atoms: _180  and  _183
REMARK   73  A    between atoms: _183  and  _184
REMARK   74  A    between atoms: _184  and  _185
REMARK   75  A    between atoms: _190  and  _192
REMARK   76  A    between atoms: _192  and  _193
REMARK   77  A    between atoms: _192  and  _195
REMARK   78  A    between atoms: _195  and  _196
REMARK   79  A    between atoms: _202  and  _204
REMARK   80  A    between atoms: _204  and  _205
REMARK   81  A    between atoms: _204  and  _207
REMARK   82  A    between atoms: _207  and  _208
REMARK   83  A    between atoms: _213  and  _214
REMARK   84  A    between atoms: _216  and  _218
REMARK   85  A    between atoms: _218  and  _219
REMARK   86  A    between atoms: _218  and  _221
REMARK   87  A    between atoms: _221  and  _222
REMARK   88  A    between atoms: _227  and  _228
REMARK   89  A    between atoms: _230  and  _232
REMARK   90  A    between atoms: _232  and  _233
REMARK   91  A    between atoms: _232  and  _235
REMARK   92  A    between atoms: _235  and  _236
REMARK   93  A    between atoms: _241  and  _243
REMARK   94  A    between atoms: _243  and  _244
REMARK   95  A    between atoms: _243  and  _246
REMARK   96  A    between atoms: _246  and  _247
REMARK   97  A    between atoms: _253  and  _255
REMARK   98  A    between atoms: _255  and  _256
REMARK   99  A    between atoms: _258  and  _260
REMARK  100  A    between atoms: _260  and  _261
REMARK  101  A    between atoms: _260  and  _263
REMARK  102  A    between atoms: _266  and  _268
REMARK  103  A    between atoms: _268  and  _269
REMARK  104  A    between atoms: _268  and  _271
REMARK  105  A    between atoms: _271  and  _272
REMARK  106  A    between atoms: _275  and  _277
REMARK  107  A    between atoms: _277  and  _278
REMARK  108  A    between atoms: _277  and  _280
REMARK  109  A    between atoms: _280  and  _281
REMARK  110  A    between atoms: _284  and  _286
REMARK  111  A    between atoms: _286  and  _287
REMARK  112  A    between atoms: _286  and  _289
REMARK  113  A    between atoms: _292  and  _294
REMARK  114  A    between atoms: _294  and  _295
REMARK  115  A    between atoms: _294  and  _297
REMARK  116  A    between atoms: _300  and  _302
REMARK  117  A    between atoms: _302  and  _303
REMARK  118  A    between atoms: _302  and  _305
REMARK  119  A    between atoms: _305  and  _306
REMARK  120  A    between atoms: _309  and  _311
REMARK  121  A    between atoms: _311  and  _312
REMARK  122  A    between atoms: _311  and  _314
REMARK  123  A    between atoms: _314  and  _315
REMARK  124  A    between atoms: _318  and  _320
REMARK  125  A    between atoms: _320  and  _321
REMARK  126  A    between atoms: _320  and  _323
REMARK  127  A    between atoms: _323  and  _324
REMARK  128  A    between atoms: _330  and  _332
REMARK  129  A    between atoms: _332  and  _333
REMARK  130  A    between atoms: _332  and  _335
REMARK  131  A    between atoms: _335  and  _336
REMARK  132  A    between atoms: _342  and  _344
REMARK  133  A    between atoms: _344  and  _345
REMARK  134  A    between atoms: _347  and  _349
REMARK  135  A    between atoms: _349  and  _350
REMARK  136  A    between atoms: _349  and  _352
REMARK  137  A    between atoms: _352  and  _353
REMARK  138  A    between atoms: _353  and  _354
REMARK  139  A    between atoms: _357  and  _359
REMARK  140  A    between atoms: _359  and  _360
REMARK  141  A    between atoms: _359  and  _362
REMARK  142  A    between atoms: _362  and  _363
REMARK  143  A    between atoms: _363  and  _364
REMARK  144  A    between atoms: _364  and  _365
REMARK  145  A    between atoms: _365  and  _366
REMARK  146  A    between atoms: _370  and  _372
REMARK  147  A    between atoms: _372  and  _373
REMARK  148  A    between atoms: _372  and  _375
REMARK  149  A    between atoms: _375  and  _376
REMARK  150  A    between atoms: _379  and  _381
REMARK  151  A    between atoms: _381  and  _382
REMARK  152  A    between atoms: _381  and  _384
REMARK  153  A    between atoms: _384  and  _385
REMARK  154  A    between atoms: _390  and  _391
REMARK  155  A    between atoms: _393  and  _395
REMARK  156  A    between atoms: _395  and  _396
REMARK  157  A    between atoms: _395  and  _398
REMARK  158  A    between atoms: _398  and  _399
REMARK  159  A    between atoms: _399  and  _400
REMARK  160  A    between atoms: _405  and  _407
REMARK  161  A    between atoms: _407  and  _408
REMARK  162  A    between atoms: _407  and  _410
REMARK  163  A    between atoms: _410  and  _411
REMARK  164  A    between atoms: _414  and  _416
REMARK  165  A    between atoms: _416  and  _417
REMARK  166  A    between atoms: _416  and  _419
REMARK  167  A    between atoms: _419  and  _420
REMARK  168  A    between atoms: _423  and  _425
REMARK  169  A    between atoms: _425  and  _426
REMARK  170  A    between atoms: _425  and  _428
REMARK  171  A    between atoms: _431  and  _433
REMARK  172  A    between atoms: _433  and  _434
REMARK  173  A    between atoms: _436  and  _438
REMARK  174  A    between atoms: _438  and  _439
REMARK  175  A    between atoms: _438  and  _441
REMARK  176  A    between atoms: _445  and  _446
REMARK  177  A    between atoms: _451  and  _453
REMARK  178  A    between atoms: _453  and  _454
REMARK  179  A    between atoms: _453  and  _456
REMARK  180  A    between atoms: _456  and  _457
REMARK  181  A    between atoms: _460  and  _462
REMARK  182  A    between atoms: _462  and  _463
REMARK  183  A    between atoms: _462  and  _465
REMARK  184  A    between atoms: _468  and  _470
REMARK  185  A    between atoms: _470  and  _471
REMARK  186  A    between atoms: _470  and  _473
REMARK  187  A    between atoms: _473  and  _474
REMARK  188  A    between atoms: _474  and  _475
REMARK  189  A    between atoms: _475  and  _476
REMARK  190  A    between atoms: _485  and  _487
REMARK  191  A    between atoms: _487  and  _488
REMARK  192  A    between atoms: _487  and  _490
REMARK  193  A    between atoms: _490  and  _491
REMARK  194  A    between atoms: _491  and  _492
REMARK  195  A    between atoms: _495  and  _497
REMARK  196  A    between atoms: _497  and  _498
REMARK  197  A    between atoms: _497  and  _500
REMARK  198  A    between atoms: _500  and  _501
REMARK  199  A    between atoms: _504  and  _506
REMARK  200  A    between atoms: _506  and  _507
REMARK  201  A    between atoms: _510  and  _512
REMARK  202  A    between atoms: _512  and  _513
REMARK  203  A    between atoms: _512  and  _515
REMARK  204  A    between atoms: _515  and  _516
REMARK  205  A    between atoms: _516  and  _517
REMARK  206  A    between atoms: _519  and  _521
REMARK  207  A    between atoms: _521  and  _522
REMARK  208  A    between atoms: _521  and  _524
REMARK  209  A    between atoms: _524  and  _525
REMARK  210  A    between atoms: _527  and  _529
REMARK  211  A    between atoms: _529  and  _530
REMARK  212  A    between atoms: _529  and  _532
REMARK  213  A    between atoms: _532  and  _533
REMARK  214  A    between atoms: _535  and  _537
REMARK  215  A    between atoms: _537  and  _538
REMARK  216  A    between atoms: _537  and  _540
REMARK  217  A    between atoms: _540  and  _541
REMARK  218  A    between atoms: _541  and  _542
REMARK  219  A    between atoms: _542  and  _543
REMARK  220  A    between atoms: _552  and  _554
REMARK  221  A    between atoms: _554  and  _555
REMARK  222  A    between atoms: _554  and  _557
REMARK  223  A    between atoms: _557  and  _558
REMARK  224  A    between atoms: _563  and  _565
REMARK  225  A    between atoms: _565  and  _566
REMARK  226  A    between atoms: _565  and  _568
REMARK  227  A    between atoms: _568  and  _569
REMARK  228  A    between atoms: _572  and  _574
REMARK  229  A    between atoms: _574  and  _575
REMARK  230  A    between atoms: _574  and  _577
REMARK  231  A    between atoms: _577  and  _578
REMARK  232  A    between atoms: _581  and  _583
REMARK  233  A    between atoms: _583  and  _584
REMARK  234  A    between atoms: _583  and  _586
REMARK  235  A    between atoms: _586  and  _587
REMARK                            x       y       z     vdW  Elec       q    Type
REMARK                         _______ _______ _______ _____ _____    ______ ____
ROOT
ATOM      1  CA  THR A   4      13.876   4.062  16.259  0.00  0.00    +0.176 C 
ENDROOT
BRANCH   1   3
ATOM      2  C   LEU A   3      13.316   3.036  14.098  0.00  0.00    +0.241 C 
ATOM      3  N   THR A   4      14.258   3.358  15.003  0.00  0.00    -0.295 N 
ATOM      4  H   THR A   4      15.254   3.115  14.826  0.00  0.00    +0.150 HD
ATOM      5  O   LEU A   3      12.134   3.169  14.323  0.00  0.00    -0.273 OA
BRANCH   2   6
ATOM      6  CA  LEU A   3      13.778   2.455  12.758  0.00  0.00    +0.149 C 
BRANCH   6   8
ATOM      7  C   VAL A   2      15.079   4.369  12.042  0.00  0.00    +0.241 C 
ATOM      8  N   LEU A   3      15.036   3.079  12.358  0.00  0.00    -0.297 N 
ATOM      9  H   LEU A   3      15.905   2.509  12.320  0.00  0.00    +0.150 HD
ATOM     10  O   VAL A   2      14.075   5.105  12.108  0.00  0.00    -0.273 OA
BRANCH   7  11
ATOM     11  CA  VAL A   2      16.424   4.912  11.521  0.00  0.00    +0.148 C 
BRANCH  11  14
ATOM     12  C   GLY A   1      17.572   5.070  13.701  0.00  0.00    +0.240 C 
ATOM     13  O   GLY A   1      16.712   5.841  14.184  0.00  0.00    -0.274 OA
ATOM     14  N   VAL A   2      17.531   4.604  12.454  0.00  0.00    -0.297 N 
ATOM     15  H   VAL A   2      18.309   3.999  12.122  0.00  0.00    +0.150 HD
BRANCH  12  16
ATOM     16  CA  GLY A   1      18.793   4.638  14.505  0.00  0.00    +0.169 C 
BRANCH  16  17
ATOM     17  N   GLY A   1      19.051   3.199  14.399  0.00  0.00    -0.236 NA
ATOM     18  H   GLY A   1      19.944   2.875  13.975  0.00  0.00    +0.142 HD
ENDBRANCH  16  17
ENDBRANCH  12  16
ENDBRANCH  11  14
BRANCH  11  19
ATOM     19  CB  VAL A   2      16.693   4.309  10.099  0.00  0.00    +0.027 C 
ATOM     20  CG2 VAL A   2      17.966   4.887   9.474  0.00  0.00    +0.002 C 
ATOM     21  CG1 VAL A   2      15.488   4.494   9.137  0.00  0.00    +0.002 C 
ENDBRANCH  11  19
ENDBRANCH   7  11
ENDBRANCH   6   8
BRANCH   6  22
ATOM     22  CB  LEU A   3      13.900   0.925  12.858  0.00  0.00    +0.029 C 
BRANCH  22  23
ATOM     23  CG  LEU A   3      14.317   0.011  11.684  0.00  0.00    +0.002 C 
ATOM     24  CD2 LEU A   3      13.774  -1.446  11.840  0.00  0.00    +0.000 C 
ATOM     25  CD1 LEU A   3      13.968   0.582  10.344  0.00  0.00    +0.000 C 
ENDBRANCH  22  23
ENDBRANCH   6  22
ENDBRANCH   2   6
ENDBRANCH   1   3
BRANCH   1  26
ATOM     26  C   THR A   4      13.181   5.400  15.994  0.00  0.00    +0.243 C 
ATOM     27  O   THR A   4      12.121   5.638  16.535  0.00  0.00    -0.273 OA
ATOM     28  N   VAL A   5      13.771   6.267  15.167  0.00  0.00    -0.297 N 
ATOM     29  H   VAL A   5      14.674   6.025  14.711  0.00  0.00    +0.150 HD
BRANCH  28  30
ATOM     30  CA  VAL A   5      13.134   7.566  14.907  0.00  0.00    +0.149 C 
BRANCH  30  31
ATOM     31  C   VAL A   5      11.839   7.401  14.086  0.00  0.00    +0.241 C 
ATOM     32  O   VAL A   5      10.832   8.096  14.320  0.00  0.00    -0.273 OA
ATOM     33  N   VAL A   6      11.818   6.432  13.179  0.00  0.00    -0.297 N 
ATOM     34  H   VAL A   6      12.645   5.816  13.042  0.00  0.00    +0.150 HD
BRANCH  33  35
ATOM     35  CA  VAL A   6      10.610   6.247  12.377  0.00  0.00    +0.149 C 
BRANCH  35  36
ATOM     36  C   VAL A   6       9.465   5.740  13.265  0.00  0.00    +0.241 C 
ATOM     37  N   LEU A   7       9.743   4.765  14.116  0.00  0.00    -0.298 N 
ATOM     38  H   LEU A   7      10.667   4.288  14.083  0.00  0.00    +0.150 HD
ATOM     39  O   VAL A   6       8.345   6.260  13.208  0.00  0.00    -0.273 OA
BRANCH  37  40
ATOM     40  CA  LEU A   7       8.747   4.366  15.098  0.00  0.00    +0.137 C 
BRANCH  40  41
ATOM     41  C   LEU A   7       8.185   5.567  15.865  0.00  0.00    +0.227 C 
ATOM     42  O   LEU A   7       6.962   5.709  16.004  0.00  0.00    -0.286 OA
ENDBRANCH  40  41
BRANCH  40  43
ATOM     43  CB  LEU A   7       9.344   3.348  16.089  0.00  0.00    +0.028 C 
BRANCH  43  44
ATOM     44  CG  LEU A   7       8.331   2.707  17.092  0.00  0.00    +0.002 C 
ATOM     45  CD2 LEU A   7       9.042   1.730  18.033  0.00  0.00    +0.000 C 
ATOM     46  CD1 LEU A   7       7.055   2.012  16.455  0.00  0.00    +0.000 C 
ENDBRANCH  43  44
ENDBRANCH  40  43
ENDBRANCH  37  40
ENDBRANCH  35  36
BRANCH  35  47
ATOM     47  CB  VAL A   6      10.862   5.365  11.131  0.00  0.00    +0.027 C 
ATOM     48  CG2 VAL A   6       9.545   4.952  10.462  0.00  0.00    +0.002 C 
ATOM     49  CG1 VAL A   6      11.763   6.118  10.138  0.00  0.00    +0.002 C 
ENDBRANCH  35  47
ENDBRANCH  33  35
ENDBRANCH  30  31
BRANCH  30  50
ATOM     50  CB  VAL A   5      14.131   8.564  14.305  0.00  0.00    +0.027 C 
ATOM     51  CG2 VAL A   5      13.647  10.016  14.536  0.00  0.00    +0.002 C 
ATOM     52  CG1 VAL A   5      14.383   8.293  12.829  0.00  0.00    +0.002 C 
ENDBRANCH  30  50
ENDBRANCH  28  30
ENDBRANCH   1  26
BRANCH   1  53
ATOM     53  CB  THR A   4      15.073   4.255  17.237  0.00  0.00    +0.137 C 
ATOM     54  CG2 THR A   4      14.616   4.983  18.530  0.00  0.00    +0.034 C 
BRANCH  53  55
ATOM     55  OG1 THR A   4      15.595   2.952  17.581  0.00  0.00    -0.382 OA
ATOM     56  HG1 THR A   4      15.899   2.492  16.759  0.00  0.00    +0.210 HD
ENDBRANCH  53  55
ENDBRANCH   1  53
TORSDOF 23
REMARK  Name = ../refined-set-2016/3ioe/3ioe_pocket.pdb
REMARK  235 active torsions:
REMARK  status: ('A' for Active; 'I' for Inactive)
REMARK    1  A    between atoms: _1  and  _3
REMARK    2  A    between atoms: _3  and  _4
REMARK    3  A    between atoms: _3  and  _6
REMARK    4  A    between atoms: _10  and  _11
REMARK    5  A    between atoms: _16  and  _18
REMARK    6  A    between atoms: _18  and  _19
REMARK    7  A    between atoms: _18  and  _21
REMARK    8  A    between atoms: _21  and  _22
REMARK    9  A    between atoms: _25  and  _27
REMARK   10  A    between atoms: _27  and  _28
REMARK   11  A    between atoms: _27  and  _30
REMARK   12  A    between atoms: _30  and  _31
REMARK   13  A    between atoms: _31  and  _32
REMARK   14  A    between atoms: _34  and  _36
REMARK   15  A    between atoms: _36  and  _37
REMARK   16  A    between atoms: _39  and  _41
REMARK   17  A    between atoms: _41  and  _42
REMARK   18  A    between atoms: _45  and  _47
REMARK   19  A    between atoms: _47  and  _48
REMARK   20  A    between atoms: _47  and  _50
REMARK   21  A    between atoms: _50  and  _51
REMARK   22  A    between atoms: _54  and  _56
REMARK   23  A    between atoms: _56  and  _57
REMARK   24  A    between atoms: _56  and  _59
REMARK   25  A    between atoms: _59  and  _60
REMARK   26  A    between atoms: _65  and  _67
REMARK   27  A    between atoms: _67  and  _68
REMARK   28  A    between atoms: _67  and  _70
REMARK   29  A    between atoms: _70  and  _71
REMARK   30  A    between atoms: _71  and  _72
REMARK   31  A    between atoms: _75  and  _77
REMARK   32  A    between atoms: _77  and  _78
REMARK   33  A    between atoms: _80  and  _82
REMARK   34  A    between atoms: _82  and  _83
REMARK   35  A    between atoms: _82  and  _85
REMARK   36  A    between atoms: _85  and  _86
REMARK   37  A    between atoms: _91  and  _93
REMARK   38  A    between atoms: _93  and  _94
REMARK   39  A    between atoms: _93  and  _96
REMARK   40  A    between atoms: _96  and  _97
REMARK   41  A    between atoms: _100  and  _102
REMARK   42  A    between atoms: _102  and  _103
REMARK   43  A    between atoms: _106  and  _108
REMARK   44  A    between atoms: _108  and  _109
REMARK   45  A    between atoms: _108  and  _111
REMARK   46  A    between atoms: _111  and  _112
REMARK   47  A    between atoms: _115  and  _117
REMARK   48  A    between atoms: _117  and  _118
REMARK   49  A    between atoms: _117  and  _120
REMARK   50  A    between atoms: _123  and  _125
REMARK   51  A    between atoms: _125  and  _126
REMARK   52  A    between atoms: _125  and  _128
REMARK   53  A    between atoms: _128  and  _129
REMARK   54  A    between atoms: _131  and  _133
REMARK   55  A    between atoms: _133  and  _134
REMARK   56  A    between atoms: _133  and  _136
REMARK   57  A    between atoms: _136  and  _137
REMARK   58  A    between atoms: _140  and  _142
REMARK   59  A    between atoms: _142  and  _143
REMARK   60  A    between atoms: _142  and  _145
REMARK   61  A    between atoms: _145  and  _146
REMARK   62  A    between atoms: _152  and  _154
REMARK   63  A    between atoms: _154  and  _155
REMARK   64  A    between atoms: _154  and  _157
REMARK   65  A    between atoms: _160  and  _162
REMARK   66  A    between atoms: _162  and  _163
REMARK   67  A    between atoms: _162  and  _165
REMARK   68  A    between atoms: _165  and  _166
REMARK   69  A    between atoms: _172  and  _173
REMARK   70  A    between atoms: _178  and  _180
REMARK   71  A    between atoms: _180  and  _181
REMARK   72  A    between atoms: _180  and  _183
REMARK   73  A    between atoms: _183  and  _184
REMARK   74  A    between atoms: _184  and  _185
REMARK   75  A    between atoms: _190  and  _192
REMARK   76  A    between atoms: _192  and  _193
REMARK   77  A    between atoms: _192  and  _195
REMARK   78  A    between atoms: _195  and  _196
REMARK   79  A    between atoms: _202  and  _204
REMARK   80  A    between atoms: _204  and  _205
REMARK   81  A    between atoms: _204  and  _207
REMARK   82  A    between atoms: _207  and  _208
REMARK   83  A    between atoms: _213  and  _214
REMARK   84  A    between atoms: _216  and  _218
REMARK   85  A    between atoms: _218  and  _219
REMARK   86  A    between atoms: _218  and  _221
REMARK   87  A    between atoms: _221  and  _222
REMARK   88  A    between atoms: _227  and  _228
REMARK   89  A    between atoms: _230  and  _232
REMARK   90  A    between atoms: _232  and  _233
REMARK   91  A    between atoms: _232  and  _235
REMARK   92  A    between atoms: _235  and  _236
REMARK   93  A    between atoms: _241  and  _243
REMARK   94  A    between atoms: _243  and  _244
REMARK   95  A    between atoms: _243  and  _246
REMARK   96  A    between atoms: _246  and  _247
REMARK   97  A    between atoms: _253  and  _255
REMARK   98  A    between atoms: _255  and  _256
REMARK   99  A    between atoms: _258  and  _260
REMARK  100  A    between atoms: _260  and  _261
REMARK  101  A    between atoms: _260  and  _263
REMARK  102  A    between atoms: _266  and  _268
REMARK  103  A    between atoms: _268  and  _269
REMARK  104  A    between atoms: _268  and  _271
REMARK  105  A    between atoms: _271  and  _272
REMARK  106  A    between atoms: _275  and  _277
REMARK  107  A    between atoms: _277  and  _278
REMARK  108  A    between atoms: _277  and  _280
REMARK  109  A    between atoms: _280  and  _281
REMARK  110  A    between atoms: _284  and  _286
REMARK  111  A    between atoms: _286  and  _287
REMARK  112  A    between atoms: _286  and  _289
REMARK  113  A    between atoms: _292  and  _294
REMARK  114  A    between atoms: _294  and  _295
REMARK  115  A    between atoms: _294  and  _297
REMARK  116  A    between atoms: _300  and  _302
REMARK  117  A    between atoms: _302  and  _303
REMARK  118  A    between atoms: _302  and  _305
REMARK  119  A    between atoms: _305  and  _306
REMARK  120  A    between atoms: _309  and  _311
REMARK  121  A    between atoms: _311  and  _312
REMARK  122  A    between atoms: _311  and  _314
REMARK  123  A    between atoms: _314  and  _315
REMARK  124  A    between atoms: _318  and  _320
REMARK  125  A    between atoms: _320  and  _321
REMARK  126  A    between atoms: _320  and  _323
REMARK  127  A    between atoms: _323  and  _324
REMARK  128  A    between atoms: _330  and  _332
REMARK  129  A    between atoms: _332  and  _333
REMARK  130  A    between atoms: _332  and  _335
REMARK  131  A    between atoms: _335  and  _336
REMARK  132  A    between atoms: _342  and  _344
REMARK  133  A    between atoms: _344  and  _345
REMARK  134  A    between atoms: _347  and  _349
REMARK  135  A    between atoms: _349  and  _350
REMARK  136  A    between atoms: _349  and  _352
REMARK  137  A    between atoms: _352  and  _353
REMARK  138  A    between atoms: _353  and  _354
REMARK  139  A    between atoms: _357  and  _359
REMARK  140  A    between atoms: _359  and  _360
REMARK  141  A    between atoms: _359  and  _362
REMARK  142  A    between atoms: _362  and  _363
REMARK  143  A    between atoms: _363  and  _364
REMARK  144  A    between atoms: _364  and  _365
REMARK  145  A    between atoms: _365  and  _366
REMARK  146  A    between atoms: _370  and  _372
REMARK  147  A    between atoms: _372  and  _373
REMARK  148  A    between atoms: _372  and  _375
REMARK  149  A    between atoms: _375  and  _376
REMARK  150  A    between atoms: _379  and  _381
REMARK  151  A    between atoms: _381  and  _382
REMARK  152  A    between atoms: _381  and  _384
REMARK  153  A    between atoms: _384  and  _385
REMARK  154  A    between atoms: _390  and  _391
REMARK  155  A    between atoms: _393  and  _395
REMARK  156  A    between atoms: _395  and  _396
REMARK  157  A    between atoms: _395  and  _398
REMARK  158  A    between atoms: _398  and  _399
REMARK  159  A    between atoms: _399  and  _400
REMARK  160  A    between atoms: _405  and  _407
REMARK  161  A    between atoms: _407  and  _408
REMARK  162  A    between atoms: _407  and  _410
REMARK  163  A    between atoms: _410  and  _411
REMARK  164  A    between atoms: _414  and  _416
REMARK  165  A    between atoms: _416  and  _417
REMARK  166  A    between atoms: _416  and  _419
REMARK  167  A    between atoms: _419  and  _420
REMARK  168  A    between atoms: _423  and  _425
REMARK  169  A    between atoms: _425  and  _426
REMARK  170  A    between atoms: _425  and  _428
REMARK  171  A    between atoms: _431  and  _433
REMARK  172  A    between atoms: _433  and  _434
REMARK  173  A    between atoms: _436  and  _438
REMARK  174  A    between atoms: _438  and  _439
REMARK  175  A    between atoms: _438  and  _441
REMARK  176  A    between atoms: _445  and  _446
REMARK  177  A    between atoms: _451  and  _453
REMARK  178  A    between atoms: _453  and  _454
REMARK  179  A    between atoms: _453  and  _456
REMARK  180  A    between atoms: _456  and  _457
REMARK  181  A    between atoms: _460  and  _462
REMARK  182  A    between atoms: _462  and  _463
REMARK  183  A    between atoms: _462  and  _465
REMARK  184  A    between atoms: _468  and  _470
REMARK  185  A    between atoms: _470  and  _471
REMARK  186  A    between atoms: _470  and  _473
REMARK  187  A    between atoms: _473  and  _474
REMARK  188  A    between atoms: _474  and  _475
REMARK  189  A    between atoms: _475  and  _476
REMARK  190  A    between atoms: _485  and  _487
REMARK  191  A    between atoms: _487  and  _488
REMARK  192  A    between atoms: _487  and  _490
REMARK  193  A    between atoms: _490  and  _491
REMARK  194  A    between atoms: _491  and  _492
REMARK  195  A    between atoms: _495  and  _497
REMARK  196  A    between atoms: _497  and  _498
REMARK  197  A    between atoms: _497  and  _500
REMARK  198  A    between atoms: _500  and  _501
REMARK  199  A    between atoms: _504  and  _506
REMARK  200  A    between atoms: _506  and  _507
REMARK  201  A    between atoms: _510  and  _512
REMARK  202  A    between atoms: _512  and  _513
REMARK  203  A    between atoms: _512  and  _515
REMARK  204  A    between atoms: _515  and  _516
REMARK  205  A    between atoms: _516  and  _517
REMARK  206  A    between atoms: _519  and  _521
REMARK  207  A    between atoms: _521  and  _522
REMARK  208  A    between atoms: _521  and  _524
REMARK  209  A    between atoms: _524  and  _525
REMARK  210  A    between atoms: _527  and  _529
REMARK  211  A    between atoms: _529  and  _530
REMARK  212  A    between atoms: _529  and  _532
REMARK  213  A    between atoms: _532  and  _533
REMARK  214  A    between atoms: _535  and  _537
REMARK  215  A    between atoms: _537  and  _538
REMARK  216  A    between atoms: _537  and  _540
REMARK  217  A    between atoms: _540  and  _541
REMARK  218  A    between atoms: _541  and  _542
REMARK  219  A    between atoms: _542  and  _543
REMARK  220  A    between atoms: _552  and  _554
REMARK  221  A    between atoms: _554  and  _555
REMARK  222  A    between atoms: _554  and  _557
REMARK  223  A    between atoms: _557  and  _558
REMARK  224  A    between atoms: _563  and  _565
REMARK  225  A    between atoms: _565  and  _566
REMARK  226  A    between atoms: _565  and  _568
REMARK  227  A    between atoms: _568  and  _569
REMARK  228  A    between atoms: _572  and  _574
REMARK  229  A    between atoms: _574  and  _575
REMARK  230  A    between atoms: _574  and  _577
REMARK  231  A    between atoms: _577  and  _578
REMARK  232  A    between atoms: _581  and  _583
REMARK  233  A    between atoms: _583  and  _584
REMARK  234  A    between atoms: _583  and  _586
REMARK  235  A    between atoms: _586  and  _587
REMARK                            x       y       z     vdW  Elec       q    Type
REMARK                         _______ _______ _______ _____ _____    ______ ____
ROOT
ATOM      1  CA  LEU A   1       7.409   9.609  14.266  0.00  0.00    +0.133 C 
ENDROOT
BRANCH   1   2
ATOM      2  N   LEU A   1       8.166   8.712  15.187  0.00  0.00    -0.239 NA
ATOM      3  H   LEU A   1       9.029   8.249  14.837  0.00  0.00    +0.142 HD
ENDBRANCH   1   2
BRANCH   1   4
ATOM      4  C   LEU A   1       6.014   9.079  13.970  0.00  0.00    +0.224 C 
ATOM      5  O   LEU A   1       5.024   9.841  14.007  0.00  0.00    -0.287 OA
ENDBRANCH   1   4
BRANCH   1   6
ATOM      6  CB  LEU A   1       8.156   9.818  12.942  0.00  0.00    +0.025 C 
BRANCH   6   7
ATOM      7  CG  LEU A   1       9.493  10.582  13.078  0.00  0.00    +0.002 C 
ATOM      8  CD2 LEU A   1       9.260  11.955  13.648  0.00  0.00    +0.000 C 
ATOM      9  CD1 LEU A   1      10.121  10.687  11.743  0.00  0.00    +0.000 C 
ENDBRANCH   6   7
ENDBRANCH   1   6
TORSDOF 4
REMARK  Name = ../refined-set-2016/3ioe/3ioe_pocket.pdb
REMARK  235 active torsions:
REMARK  status: ('A' for Active; 'I' for Inactive)
REMARK    1  A    between atoms: _1  and  _3
REMARK    2  A    between atoms: _3  and  _4
REMARK    3  A    between atoms: _3  and  _6
REMARK    4  A    between atoms: _10  and  _11
REMARK    5  A    between atoms: _16  and  _18
REMARK    6  A    between atoms: _18  and  _19
REMARK    7  A    between atoms: _18  and  _21
REMARK    8  A    between atoms: _21  and  _22
REMARK    9  A    between atoms: _25  and  _27
REMARK   10  A    between atoms: _27  and  _28
REMARK   11  A    between atoms: _27  and  _30
REMARK   12  A    between atoms: _30  and  _31
REMARK   13  A    between atoms: _31  and  _32
REMARK   14  A    between atoms: _34  and  _36
REMARK   15  A    between atoms: _36  and  _37
REMARK   16  A    between atoms: _39  and  _41
REMARK   17  A    between atoms: _41  and  _42
REMARK   18  A    between atoms: _45  and  _47
REMARK   19  A    between atoms: _47  and  _48
REMARK   20  A    between atoms: _47  and  _50
REMARK   21  A    between atoms: _50  and  _51
REMARK   22  A    between atoms: _54  and  _56
REMARK   23  A    between atoms: _56  and  _57
REMARK   24  A    between atoms: _56  and  _59
REMARK   25  A    between atoms: _59  and  _60
REMARK   26  A    between atoms: _65  and  _67
REMARK   27  A    between atoms: _67  and  _68
REMARK   28  A    between atoms: _67  and  _70
REMARK   29  A    between atoms: _70  and  _71
REMARK   30  A    between atoms: _71  and  _72
REMARK   31  A    between atoms: _75  and  _77
REMARK   32  A    between atoms: _77  and  _78
REMARK   33  A    between atoms: _80  and  _82
REMARK   34  A    between atoms: _82  and  _83
REMARK   35  A    between atoms: _82  and  _85
REMARK   36  A    between atoms: _85  and  _86
REMARK   37  A    between atoms: _91  and  _93
REMARK   38  A    between atoms: _93  and  _94
REMARK   39  A    between atoms: _93  and  _96
REMARK   40  A    between atoms: _96  and  _97
REMARK   41  A    between atoms: _100  and  _102
REMARK   42  A    between atoms: _102  and  _103
REMARK   43  A    between atoms: _106  and  _108
REMARK   44  A    between atoms: _108  and  _109
REMARK   45  A    between atoms: _108  and  _111
REMARK   46  A    between atoms: _111  and  _112
REMARK   47  A    between atoms: _115  and  _117
REMARK   48  A    between atoms: _117  and  _118
REMARK   49  A    between atoms: _117  and  _120
REMARK   50  A    between atoms: _123  and  _125
REMARK   51  A    between atoms: _125  and  _126
REMARK   52  A    between atoms: _125  and  _128
REMARK   53  A    between atoms: _128  and  _129
REMARK   54  A    between atoms: _131  and  _133
REMARK   55  A    between atoms: _133  and  _134
REMARK   56  A    between atoms: _133  and  _136
REMARK   57  A    between atoms: _136  and  _137
REMARK   58  A    between atoms: _140  and  _142
REMARK   59  A    between atoms: _142  and  _143
REMARK   60  A    between atoms: _142  and  _145
REMARK   61  A    between atoms: _145  and  _146
REMARK   62  A    between atoms: _152  and  _154
REMARK   63  A    between atoms: _154  and  _155
REMARK   64  A    between atoms: _154  and  _157
REMARK   65  A    between atoms: _160  and  _162
REMARK   66  A    between atoms: _162  and  _163
REMARK   67  A    between atoms: _162  and  _165
REMARK   68  A    between atoms: _165  and  _166
REMARK   69  A    between atoms: _172  and  _173
REMARK   70  A    between atoms: _178  and  _180
REMARK   71  A    between atoms: _180  and  _181
REMARK   72  A    between atoms: _180  and  _183
REMARK   73  A    between atoms: _183  and  _184
REMARK   74  A    between atoms: _184  and  _185
REMARK   75  A    between atoms: _190  and  _192
REMARK   76  A    between atoms: _192  and  _193
REMARK   77  A    between atoms: _192  and  _195
REMARK   78  A    between atoms: _195  and  _196
REMARK   79  A    between atoms: _202  and  _204
REMARK   80  A    between atoms: _204  and  _205
REMARK   81  A    between atoms: _204  and  _207
REMARK   82  A    between atoms: _207  and  _208
REMARK   83  A    between atoms: _213  and  _214
REMARK   84  A    between atoms: _216  and  _218
REMARK   85  A    between atoms: _218  and  _219
REMARK   86  A    between atoms: _218  and  _221
REMARK   87  A    between atoms: _221  and  _222
REMARK   88  A    between atoms: _227  and  _228
REMARK   89  A    between atoms: _230  and  _232
REMARK   90  A    between atoms: _232  and  _233
REMARK   91  A    between atoms: _232  and  _235
REMARK   92  A    between atoms: _235  and  _236
REMARK   93  A    between atoms: _241  and  _243
REMARK   94  A    between atoms: _243  and  _244
REMARK   95  A    between atoms: _243  and  _246
REMARK   96  A    between atoms: _246  and  _247
REMARK   97  A    between atoms: _253  and  _255
REMARK   98  A    between atoms: _255  and  _256
REMARK   99  A    between atoms: _258  and  _260
REMARK  100  A    between atoms: _260  and  _261
REMARK  101  A    between atoms: _260  and  _263
REMARK  102  A    between atoms: _266  and  _268
REMARK  103  A    between atoms: _268  and  _269
REMARK  104  A    between atoms: _268  and  _271
REMARK  105  A    between atoms: _271  and  _272
REMARK  106  A    between atoms: _275  and  _277
REMARK  107  A    between atoms: _277  and  _278
REMARK  108  A    between atoms: _277  and  _280
REMARK  109  A    between atoms: _280  and  _281
REMARK  110  A    between atoms: _284  and  _286
REMARK  111  A    between atoms: _286  and  _287
REMARK  112  A    between atoms: _286  and  _289
REMARK  113  A    between atoms: _292  and  _294
REMARK  114  A    between atoms: _294  and  _295
REMARK  115  A    between atoms: _294  and  _297
REMARK  116  A    between atoms: _300  and  _302
REMARK  117  A    between atoms: _302  and  _303
REMARK  118  A    between atoms: _302  and  _305
REMARK  119  A    between atoms: _305  and  _306
REMARK  120  A    between atoms: _309  and  _311
REMARK  121  A    between atoms: _311  and  _312
REMARK  122  A    between atoms: _311  and  _314
REMARK  123  A    between atoms: _314  and  _315
REMARK  124  A    between atoms: _318  and  _320
REMARK  125  A    between atoms: _320  and  _321
REMARK  126  A    between atoms: _320  and  _323
REMARK  127  A    between atoms: _323  and  _324
REMARK  128  A    between atoms: _330  and  _332
REMARK  129  A    between atoms: _332  and  _333
REMARK  130  A    between atoms: _332  and  _335
REMARK  131  A    between atoms: _335  and  _336
REMARK  132  A    between atoms: _342  and  _344
REMARK  133  A    between atoms: _344  and  _345
REMARK  134  A    between atoms: _347  and  _349
REMARK  135  A    between atoms: _349  and  _350
REMARK  136  A    between atoms: _349  and  _352
REMARK  137  A    between atoms: _352  and  _353
REMARK  138  A    between atoms: _353  and  _354
REMARK  139  A    between atoms: _357  and  _359
REMARK  140  A    between atoms: _359  and  _360
REMARK  141  A    between atoms: _359  and  _362
REMARK  142  A    between atoms: _362  and  _363
REMARK  143  A    between atoms: _363  and  _364
REMARK  144  A    between atoms: _364  and  _365
REMARK  145  A    between atoms: _365  and  _366
REMARK  146  A    between atoms: _370  and  _372
REMARK  147  A    between atoms: _372  and  _373
REMARK  148  A    between atoms: _372  and  _375
REMARK  149  A    between atoms: _375  and  _376
REMARK  150  A    between atoms: _379  and  _381
REMARK  151  A    between atoms: _381  and  _382
REMARK  152  A    between atoms: _381  and  _384
REMARK  153  A    between atoms: _384  and  _385
REMARK  154  A    between atoms: _390  and  _391
REMARK  155  A    between atoms: _393  and  _395
REMARK  156  A    between atoms: _395  and  _396
REMARK  157  A    between atoms: _395  and  _398
REMARK  158  A    between atoms: _398  and  _399
REMARK  159  A    between atoms: _399  and  _400
REMARK  160  A    between atoms: _405  and  _407
REMARK  161  A    between atoms: _407  and  _408
REMARK  162  A    between atoms: _407  and  _410
REMARK  163  A    between atoms: _410  and  _411
REMARK  164  A    between atoms: _414  and  _416
REMARK  165  A    between atoms: _416  and  _417
REMARK  166  A    between atoms: _416  and  _419
REMARK  167  A    between atoms: _419  and  _420
REMARK  168  A    between atoms: _423  and  _425
REMARK  169  A    between atoms: _425  and  _426
REMARK  170  A    between atoms: _425  and  _428
REMARK  171  A    between atoms: _431  and  _433
REMARK  172  A    between atoms: _433  and  _434
REMARK  173  A    between atoms: _436  and  _438
REMARK  174  A    between atoms: _438  and  _439
REMARK  175  A    between atoms: _438  and  _441
REMARK  176  A    between atoms: _445  and  _446
REMARK  177  A    between atoms: _451  and  _453
REMARK  178  A    between atoms: _453  and  _454
REMARK  179  A    between atoms: _453  and  _456
REMARK  180  A    between atoms: _456  and  _457
REMARK  181  A    between atoms: _460  and  _462
REMARK  182  A    between atoms: _462  and  _463
REMARK  183  A    between atoms: _462  and  _465
REMARK  184  A    between atoms: _468  and  _470
REMARK  185  A    between atoms: _470  and  _471
REMARK  186  A    between atoms: _470  and  _473
REMARK  187  A    between atoms: _473  and  _474
REMARK  188  A    between atoms: _474  and  _475
REMARK  189  A    between atoms: _475  and  _476
REMARK  190  A    between atoms: _485  and  _487
REMARK  191  A    between atoms: _487  and  _488
REMARK  192  A    between atoms: _487  and  _490
REMARK  193  A    between atoms: _490  and  _491
REMARK  194  A    between atoms: _491  and  _492
REMARK  195  A    between atoms: _495  and  _497
REMARK  196  A    between atoms: _497  and  _498
REMARK  197  A    between atoms: _497  and  _500
REMARK  198  A    between atoms: _500  and  _501
REMARK  199  A    between atoms: _504  and  _506
REMARK  200  A    between atoms: _506  and  _507
REMARK  201  A    between atoms: _510  and  _512
REMARK  202  A    between atoms: _512  and  _513
REMARK  203  A    between atoms: _512  and  _515
REMARK  204  A    between atoms: _515  and  _516
REMARK  205  A    between atoms: _516  and  _517
REMARK  206  A    between atoms: _519  and  _521
REMARK  207  A    between atoms: _521  and  _522
REMARK  208  A    between atoms: _521  and  _524
REMARK  209  A    between atoms: _524  and  _525
REMARK  210  A    between atoms: _527  and  _529
REMARK  211  A    between atoms: _529  and  _530
REMARK  212  A    between atoms: _529  and  _532
REMARK  213  A    between atoms: _532  and  _533
REMARK  214  A    between atoms: _535  and  _537
REMARK  215  A    between atoms: _537  and  _538
REMARK  216  A    between atoms: _537  and  _540
REMARK  217  A    between atoms: _540  and  _541
REMARK  218  A    between atoms: _541  and  _542
REMARK  219  A    between atoms: _542  and  _543
REMARK  220  A    between atoms: _552  and  _554
REMARK  221  A    between atoms: _554  and  _555
REMARK  222  A    between atoms: _554  and  _557
REMARK  223  A    between atoms: _557  and  _558
REMARK  224  A    between atoms: _563  and  _565
REMARK  225  A    between atoms: _565  and  _566
REMARK  226  A    between atoms: _565  and  _568
REMARK  227  A    between atoms: _568  and  _569
REMARK  228  A    between atoms: _572  and  _574
REMARK  229  A    between atoms: _574  and  _575
REMARK  230  A    between atoms: _574  and  _577
REMARK  231  A    between atoms: _577  and  _578
REMARK  232  A    between atoms: _581  and  _583
REMARK  233  A    between atoms: _583  and  _584
REMARK  234  A    between atoms: _583  and  _586
REMARK  235  A    between atoms: _586  and  _587
REMARK                            x       y       z     vdW  Elec       q    Type
REMARK                         _______ _______ _______ _____ _____    ______ ____
ROOT
ATOM      1  C   GLU A   4      14.456   3.416  -3.375  0.00  0.00    +0.241 C 
ATOM      2  O   GLU A   4      15.203   2.439  -3.326  0.00  0.00    -0.273 OA
ATOM      3  N   LYS A   5      14.899   4.678  -3.433  0.00  0.00    -0.297 N 
ATOM      4  H   LYS A   5      14.214   5.460  -3.398  0.00  0.00    +0.150 HD
ENDROOT
BRANCH   3   5
ATOM      5  CA  LYS A   5      16.303   4.975  -3.543  0.00  0.00    +0.149 C 
BRANCH   5   6
ATOM      6  C   LYS A   5      17.040   4.257  -2.423  0.00  0.00    +0.241 C 
ATOM      7  N   ASP A   6      16.558   4.437  -1.200  0.00  0.00    -0.297 N 
ATOM      8  H   ASP A   6      15.747   5.075  -1.072  0.00  0.00    +0.150 HD
ATOM      9  O   LYS A   5      17.976   3.511  -2.669  0.00  0.00    -0.273 OA
BRANCH   7  10
ATOM     10  CA  ASP A   6      17.118   3.779  -0.032  0.00  0.00    +0.160 C 
BRANCH  10  11
ATOM     11  C   ASP A   6      16.270   2.560   0.222  0.00  0.00    +0.241 C 
ATOM     12  O   ASP A   6      15.412   2.533   1.117  0.00  0.00    -0.273 OA
ATOM     13  N   TYR A   7      16.516   1.557  -0.612  0.00  0.00    -0.298 N 
ATOM     14  H   TYR A   7      17.379   1.598  -1.191  0.00  0.00    +0.150 HD
BRANCH  13  15
ATOM     15  CA  TYR A   7      15.652   0.416  -0.758  0.00  0.00    +0.141 C 
BRANCH  15  16
ATOM     16  C   TYR A   7      15.726  -0.479   0.468  0.00  0.00    +0.227 C 
ATOM     17  O   TYR A   7      14.700  -1.020   0.907  0.00  0.00    -0.286 OA
ENDBRANCH  15  16
BRANCH  15  18
ATOM     18  CB  TYR A   7      16.041  -0.392  -2.024  0.00  0.00    +0.054 C 
BRANCH  18  19
ATOM     19  CG  TYR A   7      15.095  -1.535  -2.312  0.00  0.00    -0.020 A 
ATOM     20  CD2 TYR A   7      15.403  -2.840  -1.910  0.00  0.00    -0.001 A 
ATOM     21  CE2 TYR A   7      14.495  -3.913  -2.174  0.00  0.00    +0.036 A 
ATOM     22  CZ  TYR A   7      13.283  -3.640  -2.810  0.00  0.00    +0.134 A 
ATOM     23  CE1 TYR A   7      12.952  -2.354  -3.202  0.00  0.00    +0.036 A 
ATOM     24  CD1 TYR A   7      13.874  -1.300  -2.947  0.00  0.00    -0.001 A 
BRANCH  22  25
ATOM     25  OH  TYR A   7      12.404  -4.649  -3.057  0.00  0.00    -0.506 OA
ATOM     26  HH  TYR A   7      12.137  -5.070  -2.201  0.00  0.00    +0.292 HD
ENDBRANCH  22  25
ENDBRANCH  18  19
ENDBRANCH  15  18
ENDBRANCH  13  15
ENDBRANCH  10  11
BRANCH  10  27
ATOM     27  CB  ASP A   6      17.109   4.767   1.108  0.00  0.00    +0.143 C 
BRANCH  27  28
ATOM     28  CG  ASP A   6      17.909   6.014   0.765  0.00  0.00    +0.367 C 
ATOM     29  OD2 ASP A   6      19.141   5.936   0.883  0.00  0.00    -0.246 OA
ATOM     30  OD1 ASP A   6      17.327   7.035   0.309  0.00  0.00    -0.246 OA
ENDBRANCH  27  28
ENDBRANCH  10  27
ENDBRANCH   7  10
ENDBRANCH   5   6
BRANCH   5  31
ATOM     31  CB  LYS A   5      16.542   6.495  -3.543  0.00  0.00    +0.029 C 
BRANCH  31  32
ATOM     32  CG  LYS A   5      17.826   6.919  -4.290  0.00  0.00    +0.000 C 
BRANCH  32  33
ATOM     33  CD  LYS A   5      18.997   7.203  -3.368  0.00  0.00    -0.024 C 
BRANCH  33  34
ATOM     34  CE  LYS A   5      18.810   8.553  -2.702  0.00  0.00    -0.086 C 
BRANCH  34  35
ATOM     35  NZ  LYS A   5      19.279   8.561  -1.292  0.00  0.00    +0.380 N 
ATOM     36  HZ1 LYS A   5      18.743   7.857  -0.746  0.00  0.00    -0.089 HD
ATOM     37  HZ2 LYS A   5      19.129   9.506  -0.883  0.00  0.00    -0.089 HD
ATOM     38  HZ3 LYS A   5      20.292   8.326  -1.263  0.00  0.00    -0.089 HD
ENDBRANCH  34  35
ENDBRANCH  33  34
ENDBRANCH  32  33
ENDBRANCH  31  32
ENDBRANCH   5  31
ENDBRANCH   3   5
BRANCH   1  39
ATOM     39  CA  GLU A   4      12.938   3.218  -3.329  0.00  0.00    +0.149 C 
BRANCH  39  42
ATOM     40  C   GLY A   3      12.278   4.968  -1.761  0.00  0.00    +0.243 C 
ATOM     41  O   GLY A   3      12.834   4.381  -0.823  0.00  0.00    -0.273 OA
ATOM     42  N   GLU A   4      12.201   4.451  -2.981  0.00  0.00    -0.297 N 
ATOM     43  H   GLU A   4      11.615   4.919  -3.701  0.00  0.00    +0.150 HD
BRANCH  40  44
ATOM     44  CA  GLY A   3      11.690   6.358  -1.580  0.00  0.00    +0.176 C 
BRANCH  44  46
ATOM     45  C   PHE A   2      10.001   6.098   0.137  0.00  0.00    +0.241 C 
ATOM     46  N   GLY A   3      11.174   6.595  -0.225  0.00  0.00    -0.295 N 
ATOM     47  H   GLY A   3      11.731   7.155   0.452  0.00  0.00    +0.150 HD
ATOM     48  O   PHE A   2       9.302   5.436  -0.648  0.00  0.00    -0.273 OA
BRANCH  45  49
ATOM     49  CA  PHE A   2       9.556   6.324   1.588  0.00  0.00    +0.153 C 
BRANCH  49  52
ATOM     50  C   PHE A   1       7.530   7.409   2.440  0.00  0.00    +0.239 C 
ATOM     51  O   PHE A   1       8.144   8.263   3.104  0.00  0.00    -0.274 OA
ATOM     52  N   PHE A   2       8.101   6.465   1.705  0.00  0.00    -0.297 N 
ATOM     53  H   PHE A   2       7.492   5.797   1.190  0.00  0.00    +0.150 HD
BRANCH  50  54
ATOM     54  CA  PHE A   1       6.015   7.446   2.381  0.00  0.00    +0.149 C 
BRANCH  54  55
ATOM     55  N   PHE A   1       5.352   7.522   3.688  0.00  0.00    -0.238 NA
ATOM     56  H   PHE A   1       5.425   8.399   4.243  0.00  0.00    +0.142 HD
ENDBRANCH  54  55
BRANCH  54  57
ATOM     57  CB  PHE A   1       5.557   8.624   1.526  0.00  0.00    +0.053 C 
BRANCH  57  58
ATOM     58  CG  PHE A   1       4.090   8.579   1.246  0.00  0.00    -0.020 A 
ATOM     59  CD2 PHE A   1       3.171   8.860   2.265  0.00  0.00    -0.004 A 
ATOM     60  CE2 PHE A   1       1.765   8.775   2.016  0.00  0.00    -0.000 A 
ATOM     61  CZ  PHE A   1       1.314   8.329   0.753  0.00  0.00    -0.000 A 
ATOM     62  CE1 PHE A   1       2.239   8.039  -0.268  0.00  0.00    -0.000 A 
ATOM     63  CD1 PHE A   1       3.642   8.125   0.012  0.00  0.00    -0.004 A 
ENDBRANCH  57  58
ENDBRANCH  54  57
ENDBRANCH  50  54
ENDBRANCH  49  52
BRANCH  49  64
ATOM     64  CB  PHE A   2      10.003   5.122   2.453  0.00  0.00    +0.055 C 
BRANCH  64  65
ATOM     65  CG  PHE A   2      10.031   5.420   3.928  0.00  0.00    -0.020 A 
ATOM     66  CD2 PHE A   2       9.013   5.014   4.748  0.00  0.00    -0.004 A 
ATOM     67  CE2 PHE A   2       9.010   5.306   6.125  0.00  0.00    -0.000 A 
ATOM     68  CZ  PHE A   2      10.037   6.006   6.674  0.00  0.00    -0.000 A 
ATOM     69  CE1 PHE A   2      11.083   6.436   5.858  0.00  0.00    -0.000 A 
ATOM     70  CD1 PHE A   2      11.085   6.133   4.491  0.00  0.00    -0.004 A 
ENDBRANCH  64  65
ENDBRANCH  49  64
ENDBRANCH  45  49
ENDBRANCH  44  46
ENDBRANCH  40  44
ENDBRANCH  39  42
BRANCH  39  71
ATOM     71  CB  GLU A   4      12.394   2.643  -4.655  0.00  0.00    +0.041 C 
BRANCH  71  72
ATOM     72  CG  GLU A   4      10.903   2.246  -4.489  0.00  0.00    +0.116 C 
BRANCH  72  73
ATOM     73  CD  GLU A   4      10.262   1.639  -5.736  0.00  0.00    +0.365 C 
ATOM     74  OE2 GLU A   4       9.046   1.313  -5.675  0.00  0.00    -0.246 OA
ATOM     75  OE1 GLU A   4      10.968   1.523  -6.753  0.00  0.00    -0.246 OA
ENDBRANCH  72  73
ENDBRANCH  71  72
ENDBRANCH  39  71
ENDBRANCH   1  39
TORSDOF 31
REMARK  Name = ../refined-set-2016/3ioe/3ioe_pocket.pdb
REMARK  235 active torsions:
REMARK  status: ('A' for Active; 'I' for Inactive)
REMARK    1  A    between atoms: _1  and  _3
REMARK    2  A    between atoms: _3  and  _4
REMARK    3  A    between atoms: _3  and  _6
REMARK    4  A    between atoms: _10  and  _11
REMARK    5  A    between atoms: _16  and  _18
REMARK    6  A    between atoms: _18  and  _19
REMARK    7  A    between atoms: _18  and  _21
REMARK    8  A    between atoms: _21  and  _22
REMARK    9  A    between atoms: _25  and  _27
REMARK   10  A    between atoms: _27  and  _28
REMARK   11  A    between atoms: _27  and  _30
REMARK   12  A    between atoms: _30  and  _31
REMARK   13  A    between atoms: _31  and  _32
REMARK   14  A    between atoms: _34  and  _36
REMARK   15  A    between atoms: _36  and  _37
REMARK   16  A    between atoms: _39  and  _41
REMARK   17  A    between atoms: _41  and  _42
REMARK   18  A    between atoms: _45  and  _47
REMARK   19  A    between atoms: _47  and  _48
REMARK   20  A    between atoms: _47  and  _50
REMARK   21  A    between atoms: _50  and  _51
REMARK   22  A    between atoms: _54  and  _56
REMARK   23  A    between atoms: _56  and  _57
REMARK   24  A    between atoms: _56  and  _59
REMARK   25  A    between atoms: _59  and  _60
REMARK   26  A    between atoms: _65  and  _67
REMARK   27  A    between atoms: _67  and  _68
REMARK   28  A    between atoms: _67  and  _70
REMARK   29  A    between atoms: _70  and  _71
REMARK   30  A    between atoms: _71  and  _72
REMARK   31  A    between atoms: _75  and  _77
REMARK   32  A    between atoms: _77  and  _78
REMARK   33  A    between atoms: _80  and  _82
REMARK   34  A    between atoms: _82  and  _83
REMARK   35  A    between atoms: _82  and  _85
REMARK   36  A    between atoms: _85  and  _86
REMARK   37  A    between atoms: _91  and  _93
REMARK   38  A    between atoms: _93  and  _94
REMARK   39  A    between atoms: _93  and  _96
REMARK   40  A    between atoms: _96  and  _97
REMARK   41  A    between atoms: _100  and  _102
REMARK   42  A    between atoms: _102  and  _103
REMARK   43  A    between atoms: _106  and  _108
REMARK   44  A    between atoms: _108  and  _109
REMARK   45  A    between atoms: _108  and  _111
REMARK   46  A    between atoms: _111  and  _112
REMARK   47  A    between atoms: _115  and  _117
REMARK   48  A    between atoms: _117  and  _118
REMARK   49  A    between atoms: _117  and  _120
REMARK   50  A    between atoms: _123  and  _125
REMARK   51  A    between atoms: _125  and  _126
REMARK   52  A    between atoms: _125  and  _128
REMARK   53  A    between atoms: _128  and  _129
REMARK   54  A    between atoms: _131  and  _133
REMARK   55  A    between atoms: _133  and  _134
REMARK   56  A    between atoms: _133  and  _136
REMARK   57  A    between atoms: _136  and  _137
REMARK   58  A    between atoms: _140  and  _142
REMARK   59  A    between atoms: _142  and  _143
REMARK   60  A    between atoms: _142  and  _145
REMARK   61  A    between atoms: _145  and  _146
REMARK   62  A    between atoms: _152  and  _154
REMARK   63  A    between atoms: _154  and  _155
REMARK   64  A    between atoms: _154  and  _157
REMARK   65  A    between atoms: _160  and  _162
REMARK   66  A    between atoms: _162  and  _163
REMARK   67  A    between atoms: _162  and  _165
REMARK   68  A    between atoms: _165  and  _166
REMARK   69  A    between atoms: _172  and  _173
REMARK   70  A    between atoms: _178  and  _180
REMARK   71  A    between atoms: _180  and  _181
REMARK   72  A    between atoms: _180  and  _183
REMARK   73  A    between atoms: _183  and  _184
REMARK   74  A    between atoms: _184  and  _185
REMARK   75  A    between atoms: _190  and  _192
REMARK   76  A    between atoms: _192  and  _193
REMARK   77  A    between atoms: _192  and  _195
REMARK   78  A    between atoms: _195  and  _196
REMARK   79  A    between atoms: _202  and  _204
REMARK   80  A    between atoms: _204  and  _205
REMARK   81  A    between atoms: _204  and  _207
REMARK   82  A    between atoms: _207  and  _208
REMARK   83  A    between atoms: _213  and  _214
REMARK   84  A    between atoms: _216  and  _218
REMARK   85  A    between atoms: _218  and  _219
REMARK   86  A    between atoms: _218  and  _221
REMARK   87  A    between atoms: _221  and  _222
REMARK   88  A    between atoms: _227  and  _228
REMARK   89  A    between atoms: _230  and  _232
REMARK   90  A    between atoms: _232  and  _233
REMARK   91  A    between atoms: _232  and  _235
REMARK   92  A    between atoms: _235  and  _236
REMARK   93  A    between atoms: _241  and  _243
REMARK   94  A    between atoms: _243  and  _244
REMARK   95  A    between atoms: _243  and  _246
REMARK   96  A    between atoms: _246  and  _247
REMARK   97  A    between atoms: _253  and  _255
REMARK   98  A    between atoms: _255  and  _256
REMARK   99  A    between atoms: _258  and  _260
REMARK  100  A    between atoms: _260  and  _261
REMARK  101  A    between atoms: _260  and  _263
REMARK  102  A    between atoms: _266  and  _268
REMARK  103  A    between atoms: _268  and  _269
REMARK  104  A    between atoms: _268  and  _271
REMARK  105  A    between atoms: _271  and  _272
REMARK  106  A    between atoms: _275  and  _277
REMARK  107  A    between atoms: _277  and  _278
REMARK  108  A    between atoms: _277  and  _280
REMARK  109  A    between atoms: _280  and  _281
REMARK  110  A    between atoms: _284  and  _286
REMARK  111  A    between atoms: _286  and  _287
REMARK  112  A    between atoms: _286  and  _289
REMARK  113  A    between atoms: _292  and  _294
REMARK  114  A    between atoms: _294  and  _295
REMARK  115  A    between atoms: _294  and  _297
REMARK  116  A    between atoms: _300  and  _302
REMARK  117  A    between atoms: _302  and  _303
REMARK  118  A    between atoms: _302  and  _305
REMARK  119  A    between atoms: _305  and  _306
REMARK  120  A    between atoms: _309  and  _311
REMARK  121  A    between atoms: _311  and  _312
REMARK  122  A    between atoms: _311  and  _314
REMARK  123  A    between atoms: _314  and  _315
REMARK  124  A    between atoms: _318  and  _320
REMARK  125  A    between atoms: _320  and  _321
REMARK  126  A    between atoms: _320  and  _323
REMARK  127  A    between atoms: _323  and  _324
REMARK  128  A    between atoms: _330  and  _332
REMARK  129  A    between atoms: _332  and  _333
REMARK  130  A    between atoms: _332  and  _335
REMARK  131  A    between atoms: _335  and  _336
REMARK  132  A    between atoms: _342  and  _344
REMARK  133  A    between atoms: _344  and  _345
REMARK  134  A    between atoms: _347  and  _349
REMARK  135  A    between atoms: _349  and  _350
REMARK  136  A    between atoms: _349  and  _352
REMARK  137  A    between atoms: _352  and  _353
REMARK  138  A    between atoms: _353  and  _354
REMARK  139  A    between atoms: _357  and  _359
REMARK  140  A    between atoms: _359  and  _360
REMARK  141  A    between atoms: _359  and  _362
REMARK  142  A    between atoms: _362  and  _363
REMARK  143  A    between atoms: _363  and  _364
REMARK  144  A    between atoms: _364  and  _365
REMARK  145  A    between atoms: _365  and  _366
REMARK  146  A    between atoms: _370  and  _372
REMARK  147  A    between atoms: _372  and  _373
REMARK  148  A    between atoms: _372  and  _375
REMARK  149  A    between atoms: _375  and  _376
REMARK  150  A    between atoms: _379  and  _381
REMARK  151  A    between atoms: _381  and  _382
REMARK  152  A    between atoms: _381  and  _384
REMARK  153  A    between atoms: _384  and  _385
REMARK  154  A    between atoms: _390  and  _391
REMARK  155  A    between atoms: _393  and  _395
REMARK  156  A    between atoms: _395  and  _396
REMARK  157  A    between atoms: _395  and  _398
REMARK  158  A    between atoms: _398  and  _399
REMARK  159  A    between atoms: _399  and  _400
REMARK  160  A    between atoms: _405  and  _407
REMARK  161  A    between atoms: _407  and  _408
REMARK  162  A    between atoms: _407  and  _410
REMARK  163  A    between atoms: _410  and  _411
REMARK  164  A    between atoms: _414  and  _416
REMARK  165  A    between atoms: _416  and  _417
REMARK  166  A    between atoms: _416  and  _419
REMARK  167  A    between atoms: _419  and  _420
REMARK  168  A    between atoms: _423  and  _425
REMARK  169  A    between atoms: _425  and  _426
REMARK  170  A    between atoms: _425  and  _428
REMARK  171  A    between atoms: _431  and  _433
REMARK  172  A    between atoms: _433  and  _434
REMARK  173  A    between atoms: _436  and  _438
REMARK  174  A    between atoms: _438  and  _439
REMARK  175  A    between atoms: _438  and  _441
REMARK  176  A    between atoms: _445  and  _446
REMARK  177  A    between atoms: _451  and  _453
REMARK  178  A    between atoms: _453  and  _454
REMARK  179  A    between atoms: _453  and  _456
REMARK  180  A    between atoms: _456  and  _457
REMARK  181  A    between atoms: _460  and  _462
REMARK  182  A    between atoms: _462  and  _463
REMARK  183  A    between atoms: _462  and  _465
REMARK  184  A    between atoms: _468  and  _470
REMARK  185  A    between atoms: _470  and  _471
REMARK  186  A    between atoms: _470  and  _473
REMARK  187  A    between atoms: _473  and  _474
REMARK  188  A    between atoms: _474  and  _475
REMARK  189  A    between atoms: _475  and  _476
REMARK  190  A    between atoms: _485  and  _487
REMARK  191  A    between atoms: _487  and  _488
REMARK  192  A    between atoms: _487  and  _490
REMARK  193  A    between atoms: _490  and  _491
REMARK  194  A    between atoms: _491  and  _492
REMARK  195  A    between atoms: _495  and  _497
REMARK  196  A    between atoms: _497  and  _498
REMARK  197  A    between atoms: _497  and  _500
REMARK  198  A    between atoms: _500  and  _501
REMARK  199  A    between atoms: _504  and  _506
REMARK  200  A    between atoms: _506  and  _507
REMARK  201  A    between atoms: _510  and  _512
REMARK  202  A    between atoms: _512  and  _513
REMARK  203  A    between atoms: _512  and  _515
REMARK  204  A    between atoms: _515  and  _516
REMARK  205  A    between atoms: _516  and  _517
REMARK  206  A    between atoms: _519  and  _521
REMARK  207  A    between atoms: _521  and  _522
REMARK  208  A    between atoms: _521  and  _524
REMARK  209  A    between atoms: _524  and  _525
REMARK  210  A    between atoms: _527  and  _529
REMARK  211  A    between atoms: _529  and  _530
REMARK  212  A    between atoms: _529  and  _532
REMARK  213  A    between atoms: _532  and  _533
REMARK  214  A    between atoms: _535  and  _537
REMARK  215  A    between atoms: _537  and  _538
REMARK  216  A    between atoms: _537  and  _540
REMARK  217  A    between atoms: _540  and  _541
REMARK  218  A    between atoms: _541  and  _542
REMARK  219  A    between atoms: _542  and  _543
REMARK  220  A    between atoms: _552  and  _554
REMARK  221  A    between atoms: _554  and  _555
REMARK  222  A    between atoms: _554  and  _557
REMARK  223  A    between atoms: _557  and  _558
REMARK  224  A    between atoms: _563  and  _565
REMARK  225  A    between atoms: _565  and  _566
REMARK  226  A    between atoms: _565  and  _568
REMARK  227  A    between atoms: _568  and  _569
REMARK  228  A    between atoms: _572  and  _574
REMARK  229  A    between atoms: _574  and  _575
REMARK  230  A    between atoms: _574  and  _577
REMARK  231  A    between atoms: _577  and  _578
REMARK  232  A    between atoms: _581  and  _583
REMARK  233  A    between atoms: _583  and  _584
REMARK  234  A    between atoms: _583  and  _586
REMARK  235  A    between atoms: _586  and  _587
REMARK                            x       y       z     vdW  Elec       q    Type
REMARK                         _______ _______ _______ _____ _____    ______ ____
ROOT
ATOM      1  C   GLN A   1      14.200   0.991   4.331  0.00  0.00    +0.238 C 
ATOM      2  O   GLN A   1      13.522   0.814   5.338  0.00  0.00    -0.274 OA
ATOM      3  N   LEU A   2      13.687   0.997   3.104  0.00  0.00    -0.298 N 
ATOM      4  H   LEU A   2      14.315   1.187   2.297  0.00  0.00    +0.150 HD
ENDROOT
BRANCH   1   5
ATOM      5  CA  GLN A   1      15.714   1.223   4.433  0.00  0.00    +0.145 C 
BRANCH   5   6
ATOM      6  N   GLN A   1      16.392   0.533   3.367  0.00  0.00    -0.238 NA
ATOM      7  H   GLN A   1      16.915   1.060   2.639  0.00  0.00    +0.142 HD
ENDBRANCH   5   6
BRANCH   5   8
ATOM      8  CB  GLN A   1      16.031   2.705   4.366  0.00  0.00    +0.036 C 
BRANCH   8   9
ATOM      9  CG  GLN A   1      15.152   3.545   5.224  0.00  0.00    +0.087 C 
BRANCH   9  10
ATOM     10  CD  GLN A   1      15.489   4.991   5.108  0.00  0.00    +0.219 C 
ATOM     11  OE1 GLN A   1      16.322   5.480   5.860  0.00  0.00    -0.275 OA
ATOM     12  NE2 GLN A   1      14.888   5.683   4.126  0.00  0.00    -0.329 N 
ATOM     13 HE21 GLN A   1      15.124   6.685   3.976  0.00  0.00    +0.145 HD
ATOM     14 HE22 GLN A   1      14.187   5.217   3.516  0.00  0.00    +0.145 HD
ENDBRANCH   9  10
ENDBRANCH   8   9
ENDBRANCH   5   8
ENDBRANCH   1   5
BRANCH   3  15
ATOM     15  CA  LEU A   2      12.266   0.745   2.853  0.00  0.00    +0.137 C 
BRANCH  15  16
ATOM     16  C   LEU A   2      11.913  -0.640   3.328  0.00  0.00    +0.227 C 
ATOM     17  O   LEU A   2      10.936  -0.818   4.031  0.00  0.00    -0.286 OA
ENDBRANCH  15  16
BRANCH  15  18
ATOM     18  CB  LEU A   2      11.964   0.889   1.366  0.00  0.00    +0.028 C 
BRANCH  18  19
ATOM     19  CG  LEU A   2      10.599   0.543   0.732  0.00  0.00    +0.002 C 
ATOM     20  CD2 LEU A   2       9.488   1.371   1.302  0.00  0.00    +0.000 C 
ATOM     21  CD1 LEU A   2      10.639   0.819  -0.772  0.00  0.00    +0.000 C 
ENDBRANCH  18  19
ENDBRANCH  15  18
ENDBRANCH   3  15
TORSDOF 9
REMARK  Name = ../refined-set-2016/3ioe/3ioe_pocket.pdb
REMARK  235 active torsions:
REMARK  status: ('A' for Active; 'I' for Inactive)
REMARK    1  A    between atoms: _1  and  _3
REMARK    2  A    between atoms: _3  and  _4
REMARK    3  A    between atoms: _3  and  _6
REMARK    4  A    between atoms: _10  and  _11
REMARK    5  A    between atoms: _16  and  _18
REMARK    6  A    between atoms: _18  and  _19
REMARK    7  A    between atoms: _18  and  _21
REMARK    8  A    between atoms: _21  and  _22
REMARK    9  A    between atoms: _25  and  _27
REMARK   10  A    between atoms: _27  and  _28
REMARK   11  A    between atoms: _27  and  _30
REMARK   12  A    between atoms: _30  and  _31
REMARK   13  A    between atoms: _31  and  _32
REMARK   14  A    between atoms: _34  and  _36
REMARK   15  A    between atoms: _36  and  _37
REMARK   16  A    between atoms: _39  and  _41
REMARK   17  A    between atoms: _41  and  _42
REMARK   18  A    between atoms: _45  and  _47
REMARK   19  A    between atoms: _47  and  _48
REMARK   20  A    between atoms: _47  and  _50
REMARK   21  A    between atoms: _50  and  _51
REMARK   22  A    between atoms: _54  and  _56
REMARK   23  A    between atoms: _56  and  _57
REMARK   24  A    between atoms: _56  and  _59
REMARK   25  A    between atoms: _59  and  _60
REMARK   26  A    between atoms: _65  and  _67
REMARK   27  A    between atoms: _67  and  _68
REMARK   28  A    between atoms: _67  and  _70
REMARK   29  A    between atoms: _70  and  _71
REMARK   30  A    between atoms: _71  and  _72
REMARK   31  A    between atoms: _75  and  _77
REMARK   32  A    between atoms: _77  and  _78
REMARK   33  A    between atoms: _80  and  _82
REMARK   34  A    between atoms: _82  and  _83
REMARK   35  A    between atoms: _82  and  _85
REMARK   36  A    between atoms: _85  and  _86
REMARK   37  A    between atoms: _91  and  _93
REMARK   38  A    between atoms: _93  and  _94
REMARK   39  A    between atoms: _93  and  _96
REMARK   40  A    between atoms: _96  and  _97
REMARK   41  A    between atoms: _100  and  _102
REMARK   42  A    between atoms: _102  and  _103
REMARK   43  A    between atoms: _106  and  _108
REMARK   44  A    between atoms: _108  and  _109
REMARK   45  A    between atoms: _108  and  _111
REMARK   46  A    between atoms: _111  and  _112
REMARK   47  A    between atoms: _115  and  _117
REMARK   48  A    between atoms: _117  and  _118
REMARK   49  A    between atoms: _117  and  _120
REMARK   50  A    between atoms: _123  and  _125
REMARK   51  A    between atoms: _125  and  _126
REMARK   52  A    between atoms: _125  and  _128
REMARK   53  A    between atoms: _128  and  _129
REMARK   54  A    between atoms: _131  and  _133
REMARK   55  A    between atoms: _133  and  _134
REMARK   56  A    between atoms: _133  and  _136
REMARK   57  A    between atoms: _136  and  _137
REMARK   58  A    between atoms: _140  and  _142
REMARK   59  A    between atoms: _142  and  _143
REMARK   60  A    between atoms: _142  and  _145
REMARK   61  A    between atoms: _145  and  _146
REMARK   62  A    between atoms: _152  and  _154
REMARK   63  A    between atoms: _154  and  _155
REMARK   64  A    between atoms: _154  and  _157
REMARK   65  A    between atoms: _160  and  _162
REMARK   66  A    between atoms: _162  and  _163
REMARK   67  A    between atoms: _162  and  _165
REMARK   68  A    between atoms: _165  and  _166
REMARK   69  A    between atoms: _172  and  _173
REMARK   70  A    between atoms: _178  and  _180
REMARK   71  A    between atoms: _180  and  _181
REMARK   72  A    between atoms: _180  and  _183
REMARK   73  A    between atoms: _183  and  _184
REMARK   74  A    between atoms: _184  and  _185
REMARK   75  A    between atoms: _190  and  _192
REMARK   76  A    between atoms: _192  and  _193
REMARK   77  A    between atoms: _192  and  _195
REMARK   78  A    between atoms: _195  and  _196
REMARK   79  A    between atoms: _202  and  _204
REMARK   80  A    between atoms: _204  and  _205
REMARK   81  A    between atoms: _204  and  _207
REMARK   82  A    between atoms: _207  and  _208
REMARK   83  A    between atoms: _213  and  _214
REMARK   84  A    between atoms: _216  and  _218
REMARK   85  A    between atoms: _218  and  _219
REMARK   86  A    between atoms: _218  and  _221
REMARK   87  A    between atoms: _221  and  _222
REMARK   88  A    between atoms: _227  and  _228
REMARK   89  A    between atoms: _230  and  _232
REMARK   90  A    between atoms: _232  and  _233
REMARK   91  A    between atoms: _232  and  _235
REMARK   92  A    between atoms: _235  and  _236
REMARK   93  A    between atoms: _241  and  _243
REMARK   94  A    between atoms: _243  and  _244
REMARK   95  A    between atoms: _243  and  _246
REMARK   96  A    between atoms: _246  and  _247
REMARK   97  A    between atoms: _253  and  _255
REMARK   98  A    between atoms: _255  and  _256
REMARK   99  A    between atoms: _258  and  _260
REMARK  100  A    between atoms: _260  and  _261
REMARK  101  A    between atoms: _260  and  _263
REMARK  102  A    between atoms: _266  and  _268
REMARK  103  A    between atoms: _268  and  _269
REMARK  104  A    between atoms: _268  and  _271
REMARK  105  A    between atoms: _271  and  _272
REMARK  106  A    between atoms: _275  and  _277
REMARK  107  A    between atoms: _277  and  _278
REMARK  108  A    between atoms: _277  and  _280
REMARK  109  A    between atoms: _280  and  _281
REMARK  110  A    between atoms: _284  and  _286
REMARK  111  A    between atoms: _286  and  _287
REMARK  112  A    between atoms: _286  and  _289
REMARK  113  A    between atoms: _292  and  _294
REMARK  114  A    between atoms: _294  and  _295
REMARK  115  A    between atoms: _294  and  _297
REMARK  116  A    between atoms: _300  and  _302
REMARK  117  A    between atoms: _302  and  _303
REMARK  118  A    between atoms: _302  and  _305
REMARK  119  A    between atoms: _305  and  _306
REMARK  120  A    between atoms: _309  and  _311
REMARK  121  A    between atoms: _311  and  _312
REMARK  122  A    between atoms: _311  and  _314
REMARK  123  A    between atoms: _314  and  _315
REMARK  124  A    between atoms: _318  and  _320
REMARK  125  A    between atoms: _320  and  _321
REMARK  126  A    between atoms: _320  and  _323
REMARK  127  A    between atoms: _323  and  _324
REMARK  128  A    between atoms: _330  and  _332
REMARK  129  A    between atoms: _332  and  _333
REMARK  130  A    between atoms: _332  and  _335
REMARK  131  A    between atoms: _335  and  _336
REMARK  132  A    between atoms: _342  and  _344
REMARK  133  A    between atoms: _344  and  _345
REMARK  134  A    between atoms: _347  and  _349
REMARK  135  A    between atoms: _349  and  _350
REMARK  136  A    between atoms: _349  and  _352
REMARK  137  A    between atoms: _352  and  _353
REMARK  138  A    between atoms: _353  and  _354
REMARK  139  A    between atoms: _357  and  _359
REMARK  140  A    between atoms: _359  and  _360
REMARK  141  A    between atoms: _359  and  _362
REMARK  142  A    between atoms: _362  and  _363
REMARK  143  A    between atoms: _363  and  _364
REMARK  144  A    between atoms: _364  and  _365
REMARK  145  A    between atoms: _365  and  _366
REMARK  146  A    between atoms: _370  and  _372
REMARK  147  A    between atoms: _372  and  _373
REMARK  148  A    between atoms: _372  and  _375
REMARK  149  A    between atoms: _375  and  _376
REMARK  150  A    between atoms: _379  and  _381
REMARK  151  A    between atoms: _381  and  _382
REMARK  152  A    between atoms: _381  and  _384
REMARK  153  A    between atoms: _384  and  _385
REMARK  154  A    between atoms: _390  and  _391
REMARK  155  A    between atoms: _393  and  _395
REMARK  156  A    between atoms: _395  and  _396
REMARK  157  A    between atoms: _395  and  _398
REMARK  158  A    between atoms: _398  and  _399
REMARK  159  A    between atoms: _399  and  _400
REMARK  160  A    between atoms: _405  and  _407
REMARK  161  A    between atoms: _407  and  _408
REMARK  162  A    between atoms: _407  and  _410
REMARK  163  A    between atoms: _410  and  _411
REMARK  164  A    between atoms: _414  and  _416
REMARK  165  A    between atoms: _416  and  _417
REMARK  166  A    between atoms: _416  and  _419
REMARK  167  A    between atoms: _419  and  _420
REMARK  168  A    between atoms: _423  and  _425
REMARK  169  A    between atoms: _425  and  _426
REMARK  170  A    between atoms: _425  and  _428
REMARK  171  A    between atoms: _431  and  _433
REMARK  172  A    between atoms: _433  and  _434
REMARK  173  A    between atoms: _436  and  _438
REMARK  174  A    between atoms: _438  and  _439
REMARK  175  A    between atoms: _438  and  _441
REMARK  176  A    between atoms: _445  and  _446
REMARK  177  A    between atoms: _451  and  _453
REMARK  178  A    between atoms: _453  and  _454
REMARK  179  A    between atoms: _453  and  _456
REMARK  180  A    between atoms: _456  and  _457
REMARK  181  A    between atoms: _460  and  _462
REMARK  182  A    between atoms: _462  and  _463
REMARK  183  A    between atoms: _462  and  _465
REMARK  184  A    between atoms: _468  and  _470
REMARK  185  A    between atoms: _470  and  _471
REMARK  186  A    between atoms: _470  and  _473
REMARK  187  A    between atoms: _473  and  _474
REMARK  188  A    between atoms: _474  and  _475
REMARK  189  A    between atoms: _475  and  _476
REMARK  190  A    between atoms: _485  and  _487
REMARK  191  A    between atoms: _487  and  _488
REMARK  192  A    between atoms: _487  and  _490
REMARK  193  A    between atoms: _490  and  _491
REMARK  194  A    between atoms: _491  and  _492
REMARK  195  A    between atoms: _495  and  _497
REMARK  196  A    between atoms: _497  and  _498
REMARK  197  A    between atoms: _497  and  _500
REMARK  198  A    between atoms: _500  and  _501
REMARK  199  A    between atoms: _504  and  _506
REMARK  200  A    between atoms: _506  and  _507
REMARK  201  A    between atoms: _510  and  _512
REMARK  202  A    between atoms: _512  and  _513
REMARK  203  A    between atoms: _512  and  _515
REMARK  204  A    between atoms: _515  and  _516
REMARK  205  A    between atoms: _516  and  _517
REMARK  206  A    between atoms: _519  and  _521
REMARK  207  A    between atoms: _521  and  _522
REMARK  208  A    between atoms: _521  and  _524
REMARK  209  A    between atoms: _524  and  _525
REMARK  210  A    between atoms: _527  and  _529
REMARK  211  A    between atoms: _529  and  _530
REMARK  212  A    between atoms: _529  and  _532
REMARK  213  A    between atoms: _532  and  _533
REMARK  214  A    between atoms: _535  and  _537
REMARK  215  A    between atoms: _537  and  _538
REMARK  216  A    between atoms: _537  and  _540
REMARK  217  A    between atoms: _540  and  _541
REMARK  218  A    between atoms: _541  and  _542
REMARK  219  A    between atoms: _542  and  _543
REMARK  220  A    between atoms: _552  and  _554
REMARK  221  A    between atoms: _554  and  _555
REMARK  222  A    between atoms: _554  and  _557
REMARK  223  A    between atoms: _557  and  _558
REMARK  224  A    between atoms: _563  and  _565
REMARK  225  A    between atoms: _565  and  _566
REMARK  226  A    between atoms: _565  and  _568
REMARK  227  A    between atoms: _568  and  _569
REMARK  228  A    between atoms: _572  and  _574
REMARK  229  A    between atoms: _574  and  _575
REMARK  230  A    between atoms: _574  and  _577
REMARK  231  A    between atoms: _577  and  _578
REMARK  232  A    between atoms: _581  and  _583
REMARK  233  A    between atoms: _583  and  _584
REMARK  234  A    between atoms: _583  and  _586
REMARK  235  A    between atoms: _586  and  _587
REMARK                            x       y       z     vdW  Elec       q    Type
REMARK                         _______ _______ _______ _____ _____    ______ ____
ROOT
ATOM      1  CA  ILE A   1      10.583  -0.110   7.539  0.00  0.00    +0.133 C 
ENDROOT
BRANCH   1   2
ATOM      2  N   ILE A   1      11.759  -0.797   7.042  0.00  0.00    -0.239 NA
ATOM      3  H   ILE A   1      12.234  -0.451   6.184  0.00  0.00    +0.142 HD
ENDBRANCH   1   2
BRANCH   1   4
ATOM      4  C   ILE A   1       9.343  -0.983   7.412  0.00  0.00    +0.224 C 
ATOM      5  O   ILE A   1       8.591  -1.097   8.339  0.00  0.00    -0.287 OA
ENDBRANCH   1   4
BRANCH   1   6
ATOM      6  CB  ILE A   1      10.412   1.280   6.929  0.00  0.00    +0.023 C 
ATOM      7  CG2 ILE A   1       9.042   1.819   7.273  0.00  0.00    +0.002 C 
BRANCH   6   8
ATOM      8  CG1 ILE A   1      11.457   2.214   7.554  0.00  0.00    +0.002 C 
ATOM      9  CD1 ILE A   1      11.989   3.208   6.579  0.00  0.00    +0.000 C 
ENDBRANCH   6   8
ENDBRANCH   1   6
TORSDOF 4
REMARK  Name = ../refined-set-2016/3ioe/3ioe_pocket.pdb
REMARK  235 active torsions:
REMARK  status: ('A' for Active; 'I' for Inactive)
REMARK    1  A    between atoms: _1  and  _3
REMARK    2  A    between atoms: _3  and  _4
REMARK    3  A    between atoms: _3  and  _6
REMARK    4  A    between atoms: _10  and  _11
REMARK    5  A    between atoms: _16  and  _18
REMARK    6  A    between atoms: _18  and  _19
REMARK    7  A    between atoms: _18  and  _21
REMARK    8  A    between atoms: _21  and  _22
REMARK    9  A    between atoms: _25  and  _27
REMARK   10  A    between atoms: _27  and  _28
REMARK   11  A    between atoms: _27  and  _30
REMARK   12  A    between atoms: _30  and  _31
REMARK   13  A    between atoms: _31  and  _32
REMARK   14  A    between atoms: _34  and  _36
REMARK   15  A    between atoms: _36  and  _37
REMARK   16  A    between atoms: _39  and  _41
REMARK   17  A    between atoms: _41  and  _42
REMARK   18  A    between atoms: _45  and  _47
REMARK   19  A    between atoms: _47  and  _48
REMARK   20  A    between atoms: _47  and  _50
REMARK   21  A    between atoms: _50  and  _51
REMARK   22  A    between atoms: _54  and  _56
REMARK   23  A    between atoms: _56  and  _57
REMARK   24  A    between atoms: _56  and  _59
REMARK   25  A    between atoms: _59  and  _60
REMARK   26  A    between atoms: _65  and  _67
REMARK   27  A    between atoms: _67  and  _68
REMARK   28  A    between atoms: _67  and  _70
REMARK   29  A    between atoms: _70  and  _71
REMARK   30  A    between atoms: _71  and  _72
REMARK   31  A    between atoms: _75  and  _77
REMARK   32  A    between atoms: _77  and  _78
REMARK   33  A    between atoms: _80  and  _82
REMARK   34  A    between atoms: _82  and  _83
REMARK   35  A    between atoms: _82  and  _85
REMARK   36  A    between atoms: _85  and  _86
REMARK   37  A    between atoms: _91  and  _93
REMARK   38  A    between atoms: _93  and  _94
REMARK   39  A    between atoms: _93  and  _96
REMARK   40  A    between atoms: _96  and  _97
REMARK   41  A    between atoms: _100  and  _102
REMARK   42  A    between atoms: _102  and  _103
REMARK   43  A    between atoms: _106  and  _108
REMARK   44  A    between atoms: _108  and  _109
REMARK   45  A    between atoms: _108  and  _111
REMARK   46  A    between atoms: _111  and  _112
REMARK   47  A    between atoms: _115  and  _117
REMARK   48  A    between atoms: _117  and  _118
REMARK   49  A    between atoms: _117  and  _120
REMARK   50  A    between atoms: _123  and  _125
REMARK   51  A    between atoms: _125  and  _126
REMARK   52  A    between atoms: _125  and  _128
REMARK   53  A    between atoms: _128  and  _129
REMARK   54  A    between atoms: _131  and  _133
REMARK   55  A    between atoms: _133  and  _134
REMARK   56  A    between atoms: _133  and  _136
REMARK   57  A    between atoms: _136  and  _137
REMARK   58  A    between atoms: _140  and  _142
REMARK   59  A    between atoms: _142  and  _143
REMARK   60  A    between atoms: _142  and  _145
REMARK   61  A    between atoms: _145  and  _146
REMARK   62  A    between atoms: _152  and  _154
REMARK   63  A    between atoms: _154  and  _155
REMARK   64  A    between atoms: _154  and  _157
REMARK   65  A    between atoms: _160  and  _162
REMARK   66  A    between atoms: _162  and  _163
REMARK   67  A    between atoms: _162  and  _165
REMARK   68  A    between atoms: _165  and  _166
REMARK   69  A    between atoms: _172  and  _173
REMARK   70  A    between atoms: _178  and  _180
REMARK   71  A    between atoms: _180  and  _181
REMARK   72  A    between atoms: _180  and  _183
REMARK   73  A    between atoms: _183  and  _184
REMARK   74  A    between atoms: _184  and  _185
REMARK   75  A    between atoms: _190  and  _192
REMARK   76  A    between atoms: _192  and  _193
REMARK   77  A    between atoms: _192  and  _195
REMARK   78  A    between atoms: _195  and  _196
REMARK   79  A    between atoms: _202  and  _204
REMARK   80  A    between atoms: _204  and  _205
REMARK   81  A    between atoms: _204  and  _207
REMARK   82  A    between atoms: _207  and  _208
REMARK   83  A    between atoms: _213  and  _214
REMARK   84  A    between atoms: _216  and  _218
REMARK   85  A    between atoms: _218  and  _219
REMARK   86  A    between atoms: _218  and  _221
REMARK   87  A    between atoms: _221  and  _222
REMARK   88  A    between atoms: _227  and  _228
REMARK   89  A    between atoms: _230  and  _232
REMARK   90  A    between atoms: _232  and  _233
REMARK   91  A    between atoms: _232  and  _235
REMARK   92  A    between atoms: _235  and  _236
REMARK   93  A    between atoms: _241  and  _243
REMARK   94  A    between atoms: _243  and  _244
REMARK   95  A    between atoms: _243  and  _246
REMARK   96  A    between atoms: _246  and  _247
REMARK   97  A    between atoms: _253  and  _255
REMARK   98  A    between atoms: _255  and  _256
REMARK   99  A    between atoms: _258  and  _260
REMARK  100  A    between atoms: _260  and  _261
REMARK  101  A    between atoms: _260  and  _263
REMARK  102  A    between atoms: _266  and  _268
REMARK  103  A    between atoms: _268  and  _269
REMARK  104  A    between atoms: _268  and  _271
REMARK  105  A    between atoms: _271  and  _272
REMARK  106  A    between atoms: _275  and  _277
REMARK  107  A    between atoms: _277  and  _278
REMARK  108  A    between atoms: _277  and  _280
REMARK  109  A    between atoms: _280  and  _281
REMARK  110  A    between atoms: _284  and  _286
REMARK  111  A    between atoms: _286  and  _287
REMARK  112  A    between atoms: _286  and  _289
REMARK  113  A    between atoms: _292  and  _294
REMARK  114  A    between atoms: _294  and  _295
REMARK  115  A    between atoms: _294  and  _297
REMARK  116  A    between atoms: _300  and  _302
REMARK  117  A    between atoms: _302  and  _303
REMARK  118  A    between atoms: _302  and  _305
REMARK  119  A    between atoms: _305  and  _306
REMARK  120  A    between atoms: _309  and  _311
REMARK  121  A    between atoms: _311  and  _312
REMARK  122  A    between atoms: _311  and  _314
REMARK  123  A    between atoms: _314  and  _315
REMARK  124  A    between atoms: _318  and  _320
REMARK  125  A    between atoms: _320  and  _321
REMARK  126  A    between atoms: _320  and  _323
REMARK  127  A    between atoms: _323  and  _324
REMARK  128  A    between atoms: _330  and  _332
REMARK  129  A    between atoms: _332  and  _333
REMARK  130  A    between atoms: _332  and  _335
REMARK  131  A    between atoms: _335  and  _336
REMARK  132  A    between atoms: _342  and  _344
REMARK  133  A    between atoms: _344  and  _345
REMARK  134  A    between atoms: _347  and  _349
REMARK  135  A    between atoms: _349  and  _350
REMARK  136  A    between atoms: _349  and  _352
REMARK  137  A    between atoms: _352  and  _353
REMARK  138  A    between atoms: _353  and  _354
REMARK  139  A    between atoms: _357  and  _359
REMARK  140  A    between atoms: _359  and  _360
REMARK  141  A    between atoms: _359  and  _362
REMARK  142  A    between atoms: _362  and  _363
REMARK  143  A    between atoms: _363  and  _364
REMARK  144  A    between atoms: _364  and  _365
REMARK  145  A    between atoms: _365  and  _366
REMARK  146  A    between atoms: _370  and  _372
REMARK  147  A    between atoms: _372  and  _373
REMARK  148  A    between atoms: _372  and  _375
REMARK  149  A    between atoms: _375  and  _376
REMARK  150  A    between atoms: _379  and  _381
REMARK  151  A    between atoms: _381  and  _382
REMARK  152  A    between atoms: _381  and  _384
REMARK  153  A    between atoms: _384  and  _385
REMARK  154  A    between atoms: _390  and  _391
REMARK  155  A    between atoms: _393  and  _395
REMARK  156  A    between atoms: _395  and  _396
REMARK  157  A    between atoms: _395  and  _398
REMARK  158  A    between atoms: _398  and  _399
REMARK  159  A    between atoms: _399  and  _400
REMARK  160  A    between atoms: _405  and  _407
REMARK  161  A    between atoms: _407  and  _408
REMARK  162  A    between atoms: _407  and  _410
REMARK  163  A    between atoms: _410  and  _411
REMARK  164  A    between atoms: _414  and  _416
REMARK  165  A    between atoms: _416  and  _417
REMARK  166  A    between atoms: _416  and  _419
REMARK  167  A    between atoms: _419  and  _420
REMARK  168  A    between atoms: _423  and  _425
REMARK  169  A    between atoms: _425  and  _426
REMARK  170  A    between atoms: _425  and  _428
REMARK  171  A    between atoms: _431  and  _433
REMARK  172  A    between atoms: _433  and  _434
REMARK  173  A    between atoms: _436  and  _438
REMARK  174  A    between atoms: _438  and  _439
REMARK  175  A    between atoms: _438  and  _441
REMARK  176  A    between atoms: _445  and  _446
REMARK  177  A    between atoms: _451  and  _453
REMARK  178  A    between atoms: _453  and  _454
REMARK  179  A    between atoms: _453  and  _456
REMARK  180  A    between atoms: _456  and  _457
REMARK  181  A    between atoms: _460  and  _462
REMARK  182  A    between atoms: _462  and  _463
REMARK  183  A    between atoms: _462  and  _465
REMARK  184  A    between atoms: _468  and  _470
REMARK  185  A    between atoms: _470  and  _471
REMARK  186  A    between atoms: _470  and  _473
REMARK  187  A    between atoms: _473  and  _474
REMARK  188  A    between atoms: _474  and  _475
REMARK  189  A    between atoms: _475  and  _476
REMARK  190  A    between atoms: _485  and  _487
REMARK  191  A    between atoms: _487  and  _488
REMARK  192  A    between atoms: _487  and  _490
REMARK  193  A    between atoms: _490  and  _491
REMARK  194  A    between atoms: _491  and  _492
REMARK  195  A    between atoms: _495  and  _497
REMARK  196  A    between atoms: _497  and  _498
REMARK  197  A    between atoms: _497  and  _500
REMARK  198  A    between atoms: _500  and  _501
REMARK  199  A    between atoms: _504  and  _506
REMARK  200  A    between atoms: _506  and  _507
REMARK  201  A    between atoms: _510  and  _512
REMARK  202  A    between atoms: _512  and  _513
REMARK  203  A    between atoms: _512  and  _515
REMARK  204  A    between atoms: _515  and  _516
REMARK  205  A    between atoms: _516  and  _517
REMARK  206  A    between atoms: _519  and  _521
REMARK  207  A    between atoms: _521  and  _522
REMARK  208  A    between atoms: _521  and  _524
REMARK  209  A    between atoms: _524  and  _525
REMARK  210  A    between atoms: _527  and  _529
REMARK  211  A    between atoms: _529  and  _530
REMARK  212  A    between atoms: _529  and  _532
REMARK  213  A    between atoms: _532  and  _533
REMARK  214  A    between atoms: _535  and  _537
REMARK  215  A    between atoms: _537  and  _538
REMARK  216  A    between atoms: _537  and  _540
REMARK  217  A    between atoms: _540  and  _541
REMARK  218  A    between atoms: _541  and  _542
REMARK  219  A    between atoms: _542  and  _543
REMARK  220  A    between atoms: _552  and  _554
REMARK  221  A    between atoms: _554  and  _555
REMARK  222  A    between atoms: _554  and  _557
REMARK  223  A    between atoms: _557  and  _558
REMARK  224  A    between atoms: _563  and  _565
REMARK  225  A    between atoms: _565  and  _566
REMARK  226  A    between atoms: _565  and  _568
REMARK  227  A    between atoms: _568  and  _569
REMARK  228  A    between atoms: _572  and  _574
REMARK  229  A    between atoms: _574  and  _575
REMARK  230  A    between atoms: _574  and  _577
REMARK  231  A    between atoms: _577  and  _578
REMARK  232  A    between atoms: _581  and  _583
REMARK  233  A    between atoms: _583  and  _584
REMARK  234  A    between atoms: _583  and  _586
REMARK  235  A    between atoms: _586  and  _587
REMARK                            x       y       z     vdW  Elec       q    Type
REMARK                         _______ _______ _______ _____ _____    ______ ____
ROOT
ATOM      1  C   THR A   5      13.318   7.997  -8.541  0.00  0.00    +0.243 C 
ATOM      2  N   VAL A   6      13.502   9.256  -8.168  0.00  0.00    -0.297 N 
ATOM      3  H   VAL A   6      13.636   9.466  -7.158  0.00  0.00    +0.150 HD
ATOM      4  O   THR A   5      13.100   7.665  -9.706  0.00  0.00    -0.273 OA
ENDROOT
BRANCH   2   5
ATOM      5  CA  VAL A   6      13.523  10.357  -9.127  0.00  0.00    +0.149 C 
BRANCH   5   6
ATOM      6  C   VAL A   6      14.970  10.498  -9.571  0.00  0.00    +0.241 C 
ATOM      7  O   VAL A   6      15.895  10.452  -8.746  0.00  0.00    -0.273 OA
ATOM      8  N   ARG A   7      15.147  10.618 -10.881  0.00  0.00    -0.297 N 
ATOM      9  H   ARG A   7      14.309  10.677 -11.494  0.00  0.00    +0.150 HD
BRANCH   8  10
ATOM     10  CA  ARG A   7      16.471  10.670 -11.498  0.00  0.00    +0.149 C 
BRANCH  10  11
ATOM     11  C   ARG A   7      16.717  11.970 -12.262  0.00  0.00    +0.241 C 
ATOM     12  N   GLU A   8      17.971  12.403 -12.317  0.00  0.00    -0.298 N 
ATOM     13  H   GLU A   8      18.689  11.970 -11.702  0.00  0.00    +0.150 HD
ATOM     14  O   ARG A   7      15.775  12.579 -12.779  0.00  0.00    -0.273 OA
BRANCH  12  15
ATOM     15  CA  GLU A   8      18.357  13.474 -13.224  0.00  0.00    +0.137 C 
BRANCH  15  16
ATOM     16  C   GLU A   8      18.170  12.997 -14.673  0.00  0.00    +0.227 C 
ATOM     17  O   GLU A   8      17.911  11.803 -14.914  0.00  0.00    -0.286 OA
ENDBRANCH  15  16
BRANCH  15  18
ATOM     18  CB  GLU A   8      19.809  13.916 -13.004  0.00  0.00    +0.039 C 
BRANCH  18  19
ATOM     19  CG  GLU A   8      20.151  14.362 -11.643  0.00  0.00    +0.116 C 
BRANCH  19  20
ATOM     20  CD  GLU A   8      19.572  15.724 -11.284  0.00  0.00    +0.365 C 
ATOM     21  OE2 GLU A   8      19.902  16.209 -10.178  0.00  0.00    -0.246 OA
ATOM     22  OE1 GLU A   8      18.783  16.307 -12.075  0.00  0.00    -0.246 OA
ENDBRANCH  19  20
ENDBRANCH  18  19
ENDBRANCH  15  18
ENDBRANCH  12  15
ENDBRANCH  10  11
BRANCH  10  23
ATOM     23  CB  ARG A   7      16.610   9.481 -12.435  0.00  0.00    +0.033 C 
BRANCH  23  24
ATOM     24  CG  ARG A   7      16.736   8.162 -11.673  0.00  0.00    +0.045 C 
BRANCH  24  25
ATOM     25  CD  ARG A   7      16.589   6.920 -12.568  0.00  0.00    +0.174 C 
BRANCH  25  26
ATOM     26  NE  ARG A   7      16.559   5.704 -11.734  0.00  0.00    -0.265 N 
ATOM     27  CZ  ARG A   7      17.618   5.181 -11.091  0.00  0.00    +0.342 C 
ATOM     28  NH2 ARG A   7      17.472   4.083 -10.351  0.00  0.00    -0.292 N 
ATOM     29 HH21 ARG A   7      18.291   3.678  -9.854  0.00  0.00    +0.255 HD
ATOM     30 HH22 ARG A   7      16.539   3.630 -10.271  0.00  0.00    +0.255 HD
ATOM     31  NH1 ARG A   7      18.830   5.743 -11.149  0.00  0.00    -0.292 N 
ATOM     32 HH11 ARG A   7      19.628   5.312 -10.639  0.00  0.00    +0.255 HD
ATOM     33 HH12 ARG A   7      18.975   6.611 -11.704  0.00  0.00    +0.255 HD
ATOM     34  HE  ARG A   7      15.648   5.213 -11.635  0.00  0.00    +0.259 HD
ENDBRANCH  25  26
ENDBRANCH  24  25
ENDBRANCH  23  24
ENDBRANCH  10  23
ENDBRANCH   8  10
ENDBRANCH   5   6
BRANCH   5  35
ATOM     35  CB  VAL A   6      12.940  11.678  -8.540  0.00  0.00    +0.027 C 
ATOM     36  CG2 VAL A   6      11.541  11.424  -8.022  0.00  0.00    +0.002 C 
ATOM     37  CG1 VAL A   6      12.904  12.814  -9.601  0.00  0.00    +0.002 C 
ENDBRANCH   5  35
ENDBRANCH   2   5
BRANCH   1  38
ATOM     38  CA  THR A   5      13.408   6.940  -7.436  0.00  0.00    +0.176 C 
BRANCH  38  41
ATOM     39  C   PRO A   4      10.997   6.401  -7.258  0.00  0.00    +0.241 C 
ATOM     40  O   PRO A   4      10.647   7.581  -7.079  0.00  0.00    -0.273 OA
ATOM     41  N   THR A   5      12.253   6.018  -7.406  0.00  0.00    -0.295 N 
ATOM     42  H   THR A   5      12.441   5.000  -7.508  0.00  0.00    +0.150 HD
BRANCH  39  49
ATOM     43  C   VAL A   3       9.022   5.601  -5.131  0.00  0.00    +0.244 C 
ATOM     44  O   VAL A   3      10.173   5.607  -4.660  0.00  0.00    -0.273 OA
ATOM     45  N   PRO A   4       8.789   5.455  -6.466  0.00  0.00    -0.272 N 
ATOM     46  CD  PRO A   4       7.525   5.364  -7.229  0.00  0.00    +0.094 C 
ATOM     47  CG  PRO A   4       7.934   4.610  -8.468  0.00  0.00    +0.024 C 
ATOM     48  CB  PRO A   4       9.369   5.141  -8.735  0.00  0.00    +0.031 C 
ATOM     49  CA  PRO A   4       9.970   5.272  -7.328  0.00  0.00    +0.152 C 
BRANCH  43  50
ATOM     50  CA  VAL A   3       7.804   5.761  -4.185  0.00  0.00    +0.149 C 
BRANCH  50  52
ATOM     51  C   GLY A   2       7.149   3.847  -2.810  0.00  0.00    +0.243 C 
ATOM     52  N   VAL A   3       7.964   4.884  -3.015  0.00  0.00    -0.297 N 
ATOM     53  H   VAL A   3       8.727   5.076  -2.334  0.00  0.00    +0.150 HD
ATOM     54  O   GLY A   2       6.253   3.564  -3.588  0.00  0.00    -0.273 OA
BRANCH  51  55
ATOM     55  CA  GLY A   2       7.355   3.019  -1.543  0.00  0.00    +0.176 C 
BRANCH  55  58
ATOM     56  C   VAL A   1       5.560   3.643  -0.014  0.00  0.00    +0.238 C 
ATOM     57  O   VAL A   1       6.154   4.671   0.380  0.00  0.00    -0.274 OA
ATOM     58  N   GLY A   2       6.077   2.775  -0.881  0.00  0.00    -0.296 N 
ATOM     59  H   GLY A   2       5.557   1.900  -1.092  0.00  0.00    +0.150 HD
BRANCH  56  60
ATOM     60  CA  VAL A   1       4.154   3.355   0.457  0.00  0.00    +0.145 C 
BRANCH  60  61
ATOM     61  CB  VAL A   1       3.278   4.549   0.068  0.00  0.00    +0.025 C 
ATOM     62  CG2 VAL A   1       1.839   4.376   0.636  0.00  0.00    +0.002 C 
ATOM     63  CG1 VAL A   1       3.267   4.740  -1.477  0.00  0.00    +0.002 C 
ENDBRANCH  60  61
BRANCH  60  64
ATOM     64  N   VAL A   1       4.137   3.102   1.907  0.00  0.00    -0.238 NA
ATOM     65  H   VAL A   1       4.283   3.898   2.560  0.00  0.00    +0.142 HD
ENDBRANCH  60  64
ENDBRANCH  56  60
ENDBRANCH  55  58
ENDBRANCH  51  55
ENDBRANCH  50  52
BRANCH  50  66
ATOM     66  CB  VAL A   3       7.572   7.220  -3.717  0.00  0.00    +0.027 C 
ATOM     67  CG2 VAL A   3       6.329   7.293  -2.835  0.00  0.00    +0.002 C 
ATOM     68  CG1 VAL A   3       7.458   8.212  -4.910  0.00  0.00    +0.002 C 
ENDBRANCH  50  66
ENDBRANCH  43  50
ENDBRANCH  39  49
ENDBRANCH  38  41
BRANCH  38  69
ATOM     69  CB  THR A   5      14.676   6.126  -7.688  0.00  0.00    +0.137 C 
ATOM     70  CG2 THR A   5      15.887   6.990  -7.779  0.00  0.00    +0.034 C 
BRANCH  69  71
ATOM     71  OG1 THR A   5      14.821   5.159  -6.631  0.00  0.00    -0.382 OA
ATOM     72  HG1 THR A   5      15.640   4.625  -6.784  0.00  0.00    +0.210 HD
ENDBRANCH  69  71
ENDBRANCH  38  69
ENDBRANCH   1  38
TORSDOF 27
REMARK  Name = ../refined-set-2016/3ioe/3ioe_pocket.pdb
REMARK  235 active torsions:
REMARK  status: ('A' for Active; 'I' for Inactive)
REMARK    1  A    between atoms: _1  and  _3
REMARK    2  A    between atoms: _3  and  _4
REMARK    3  A    between atoms: _3  and  _6
REMARK    4  A    between atoms: _10  and  _11
REMARK    5  A    between atoms: _16  and  _18
REMARK    6  A    between atoms: _18  and  _19
REMARK    7  A    between atoms: _18  and  _21
REMARK    8  A    between atoms: _21  and  _22
REMARK    9  A    between atoms: _25  and  _27
REMARK   10  A    between atoms: _27  and  _28
REMARK   11  A    between atoms: _27  and  _30
REMARK   12  A    between atoms: _30  and  _31
REMARK   13  A    between atoms: _31  and  _32
REMARK   14  A    between atoms: _34  and  _36
REMARK   15  A    between atoms: _36  and  _37
REMARK   16  A    between atoms: _39  and  _41
REMARK   17  A    between atoms: _41  and  _42
REMARK   18  A    between atoms: _45  and  _47
REMARK   19  A    between atoms: _47  and  _48
REMARK   20  A    between atoms: _47  and  _50
REMARK   21  A    between atoms: _50  and  _51
REMARK   22  A    between atoms: _54  and  _56
REMARK   23  A    between atoms: _56  and  _57
REMARK   24  A    between atoms: _56  and  _59
REMARK   25  A    between atoms: _59  and  _60
REMARK   26  A    between atoms: _65  and  _67
REMARK   27  A    between atoms: _67  and  _68
REMARK   28  A    between atoms: _67  and  _70
REMARK   29  A    between atoms: _70  and  _71
REMARK   30  A    between atoms: _71  and  _72
REMARK   31  A    between atoms: _75  and  _77
REMARK   32  A    between atoms: _77  and  _78
REMARK   33  A    between atoms: _80  and  _82
REMARK   34  A    between atoms: _82  and  _83
REMARK   35  A    between atoms: _82  and  _85
REMARK   36  A    between atoms: _85  and  _86
REMARK   37  A    between atoms: _91  and  _93
REMARK   38  A    between atoms: _93  and  _94
REMARK   39  A    between atoms: _93  and  _96
REMARK   40  A    between atoms: _96  and  _97
REMARK   41  A    between atoms: _100  and  _102
REMARK   42  A    between atoms: _102  and  _103
REMARK   43  A    between atoms: _106  and  _108
REMARK   44  A    between atoms: _108  and  _109
REMARK   45  A    between atoms: _108  and  _111
REMARK   46  A    between atoms: _111  and  _112
REMARK   47  A    between atoms: _115  and  _117
REMARK   48  A    between atoms: _117  and  _118
REMARK   49  A    between atoms: _117  and  _120
REMARK   50  A    between atoms: _123  and  _125
REMARK   51  A    between atoms: _125  and  _126
REMARK   52  A    between atoms: _125  and  _128
REMARK   53  A    between atoms: _128  and  _129
REMARK   54  A    between atoms: _131  and  _133
REMARK   55  A    between atoms: _133  and  _134
REMARK   56  A    between atoms: _133  and  _136
REMARK   57  A    between atoms: _136  and  _137
REMARK   58  A    between atoms: _140  and  _142
REMARK   59  A    between atoms: _142  and  _143
REMARK   60  A    between atoms: _142  and  _145
REMARK   61  A    between atoms: _145  and  _146
REMARK   62  A    between atoms: _152  and  _154
REMARK   63  A    between atoms: _154  and  _155
REMARK   64  A    between atoms: _154  and  _157
REMARK   65  A    between atoms: _160  and  _162
REMARK   66  A    between atoms: _162  and  _163
REMARK   67  A    between atoms: _162  and  _165
REMARK   68  A    between atoms: _165  and  _166
REMARK   69  A    between atoms: _172  and  _173
REMARK   70  A    between atoms: _178  and  _180
REMARK   71  A    between atoms: _180  and  _181
REMARK   72  A    between atoms: _180  and  _183
REMARK   73  A    between atoms: _183  and  _184
REMARK   74  A    between atoms: _184  and  _185
REMARK   75  A    between atoms: _190  and  _192
REMARK   76  A    between atoms: _192  and  _193
REMARK   77  A    between atoms: _192  and  _195
REMARK   78  A    between atoms: _195  and  _196
REMARK   79  A    between atoms: _202  and  _204
REMARK   80  A    between atoms: _204  and  _205
REMARK   81  A    between atoms: _204  and  _207
REMARK   82  A    between atoms: _207  and  _208
REMARK   83  A    between atoms: _213  and  _214
REMARK   84  A    between atoms: _216  and  _218
REMARK   85  A    between atoms: _218  and  _219
REMARK   86  A    between atoms: _218  and  _221
REMARK   87  A    between atoms: _221  and  _222
REMARK   88  A    between atoms: _227  and  _228
REMARK   89  A    between atoms: _230  and  _232
REMARK   90  A    between atoms: _232  and  _233
REMARK   91  A    between atoms: _232  and  _235
REMARK   92  A    between atoms: _235  and  _236
REMARK   93  A    between atoms: _241  and  _243
REMARK   94  A    between atoms: _243  and  _244
REMARK   95  A    between atoms: _243  and  _246
REMARK   96  A    between atoms: _246  and  _247
REMARK   97  A    between atoms: _253  and  _255
REMARK   98  A    between atoms: _255  and  _256
REMARK   99  A    between atoms: _258  and  _260
REMARK  100  A    between atoms: _260  and  _261
REMARK  101  A    between atoms: _260  and  _263
REMARK  102  A    between atoms: _266  and  _268
REMARK  103  A    between atoms: _268  and  _269
REMARK  104  A    between atoms: _268  and  _271
REMARK  105  A    between atoms: _271  and  _272
REMARK  106  A    between atoms: _275  and  _277
REMARK  107  A    between atoms: _277  and  _278
REMARK  108  A    between atoms: _277  and  _280
REMARK  109  A    between atoms: _280  and  _281
REMARK  110  A    between atoms: _284  and  _286
REMARK  111  A    between atoms: _286  and  _287
REMARK  112  A    between atoms: _286  and  _289
REMARK  113  A    between atoms: _292  and  _294
REMARK  114  A    between atoms: _294  and  _295
REMARK  115  A    between atoms: _294  and  _297
REMARK  116  A    between atoms: _300  and  _302
REMARK  117  A    between atoms: _302  and  _303
REMARK  118  A    between atoms: _302  and  _305
REMARK  119  A    between atoms: _305  and  _306
REMARK  120  A    between atoms: _309  and  _311
REMARK  121  A    between atoms: _311  and  _312
REMARK  122  A    between atoms: _311  and  _314
REMARK  123  A    between atoms: _314  and  _315
REMARK  124  A    between atoms: _318  and  _320
REMARK  125  A    between atoms: _320  and  _321
REMARK  126  A    between atoms: _320  and  _323
REMARK  127  A    between atoms: _323  and  _324
REMARK  128  A    between atoms: _330  and  _332
REMARK  129  A    between atoms: _332  and  _333
REMARK  130  A    between atoms: _332  and  _335
REMARK  131  A    between atoms: _335  and  _336
REMARK  132  A    between atoms: _342  and  _344
REMARK  133  A    between atoms: _344  and  _345
REMARK  134  A    between atoms: _347  and  _349
REMARK  135  A    between atoms: _349  and  _350
REMARK  136  A    between atoms: _349  and  _352
REMARK  137  A    between atoms: _352  and  _353
REMARK  138  A    between atoms: _353  and  _354
REMARK  139  A    between atoms: _357  and  _359
REMARK  140  A    between atoms: _359  and  _360
REMARK  141  A    between atoms: _359  and  _362
REMARK  142  A    between atoms: _362  and  _363
REMARK  143  A    between atoms: _363  and  _364
REMARK  144  A    between atoms: _364  and  _365
REMARK  145  A    between atoms: _365  and  _366
REMARK  146  A    between atoms: _370  and  _372
REMARK  147  A    between atoms: _372  and  _373
REMARK  148  A    between atoms: _372  and  _375
REMARK  149  A    between atoms: _375  and  _376
REMARK  150  A    between atoms: _379  and  _381
REMARK  151  A    between atoms: _381  and  _382
REMARK  152  A    between atoms: _381  and  _384
REMARK  153  A    between atoms: _384  and  _385
REMARK  154  A    between atoms: _390  and  _391
REMARK  155  A    between atoms: _393  and  _395
REMARK  156  A    between atoms: _395  and  _396
REMARK  157  A    between atoms: _395  and  _398
REMARK  158  A    between atoms: _398  and  _399
REMARK  159  A    between atoms: _399  and  _400
REMARK  160  A    between atoms: _405  and  _407
REMARK  161  A    between atoms: _407  and  _408
REMARK  162  A    between atoms: _407  and  _410
REMARK  163  A    between atoms: _410  and  _411
REMARK  164  A    between atoms: _414  and  _416
REMARK  165  A    between atoms: _416  and  _417
REMARK  166  A    between atoms: _416  and  _419
REMARK  167  A    between atoms: _419  and  _420
REMARK  168  A    between atoms: _423  and  _425
REMARK  169  A    between atoms: _425  and  _426
REMARK  170  A    between atoms: _425  and  _428
REMARK  171  A    between atoms: _431  and  _433
REMARK  172  A    between atoms: _433  and  _434
REMARK  173  A    between atoms: _436  and  _438
REMARK  174  A    between atoms: _438  and  _439
REMARK  175  A    between atoms: _438  and  _441
REMARK  176  A    between atoms: _445  and  _446
REMARK  177  A    between atoms: _451  and  _453
REMARK  178  A    between atoms: _453  and  _454
REMARK  179  A    between atoms: _453  and  _456
REMARK  180  A    between atoms: _456  and  _457
REMARK  181  A    between atoms: _460  and  _462
REMARK  182  A    between atoms: _462  and  _463
REMARK  183  A    between atoms: _462  and  _465
REMARK  184  A    between atoms: _468  and  _470
REMARK  185  A    between atoms: _470  and  _471
REMARK  186  A    between atoms: _470  and  _473
REMARK  187  A    between atoms: _473  and  _474
REMARK  188  A    between atoms: _474  and  _475
REMARK  189  A    between atoms: _475  and  _476
REMARK  190  A    between atoms: _485  and  _487
REMARK  191  A    between atoms: _487  and  _488
REMARK  192  A    between atoms: _487  and  _490
REMARK  193  A    between atoms: _490  and  _491
REMARK  194  A    between atoms: _491  and  _492
REMARK  195  A    between atoms: _495  and  _497
REMARK  196  A    between atoms: _497  and  _498
REMARK  197  A    between atoms: _497  and  _500
REMARK  198  A    between atoms: _500  and  _501
REMARK  199  A    between atoms: _504  and  _506
REMARK  200  A    between atoms: _506  and  _507
REMARK  201  A    between atoms: _510  and  _512
REMARK  202  A    between atoms: _512  and  _513
REMARK  203  A    between atoms: _512  and  _515
REMARK  204  A    between atoms: _515  and  _516
REMARK  205  A    between atoms: _516  and  _517
REMARK  206  A    between atoms: _519  and  _521
REMARK  207  A    between atoms: _521  and  _522
REMARK  208  A    between atoms: _521  and  _524
REMARK  209  A    between atoms: _524  and  _525
REMARK  210  A    between atoms: _527  and  _529
REMARK  211  A    between atoms: _529  and  _530
REMARK  212  A    between atoms: _529  and  _532
REMARK  213  A    between atoms: _532  and  _533
REMARK  214  A    between atoms: _535  and  _537
REMARK  215  A    between atoms: _537  and  _538
REMARK  216  A    between atoms: _537  and  _540
REMARK  217  A    between atoms: _540  and  _541
REMARK  218  A    between atoms: _541  and  _542
REMARK  219  A    between atoms: _542  and  _543
REMARK  220  A    between atoms: _552  and  _554
REMARK  221  A    between atoms: _554  and  _555
REMARK  222  A    between atoms: _554  and  _557
REMARK  223  A    between atoms: _557  and  _558
REMARK  224  A    between atoms: _563  and  _565
REMARK  225  A    between atoms: _565  and  _566
REMARK  226  A    between atoms: _565  and  _568
REMARK  227  A    between atoms: _568  and  _569
REMARK  228  A    between atoms: _572  and  _574
REMARK  229  A    between atoms: _574  and  _575
REMARK  230  A    between atoms: _574  and  _577
REMARK  231  A    between atoms: _577  and  _578
REMARK  232  A    between atoms: _581  and  _583
REMARK  233  A    between atoms: _583  and  _584
REMARK  234  A    between atoms: _583  and  _586
REMARK  235  A    between atoms: _586  and  _587
REMARK                            x       y       z     vdW  Elec       q    Type
REMARK                         _______ _______ _______ _____ _____    ______ ____
ROOT
ATOM      1  C   SER A   4      20.979  13.894  -3.089  0.00  0.00    +0.243 C 
ATOM      2  N   SER A   5      20.859  14.178  -1.797  0.00  0.00    -0.295 N 
ATOM      3  H   SER A   5      20.286  13.551  -1.197  0.00  0.00    +0.150 HD
ATOM      4  O   SER A   4      21.594  14.607  -3.889  0.00  0.00    -0.273 OA
ENDROOT
BRANCH   2   5
ATOM      5  CA  SER A   5      21.504  15.341  -1.188  0.00  0.00    +0.178 C 
BRANCH   5   6
ATOM      6  C   SER A   5      23.024  15.224  -1.300  0.00  0.00    +0.243 C 
ATOM      7  O   SER A   5      23.716  16.237  -1.294  0.00  0.00    -0.273 OA
ATOM      8  N   ARG A   6      23.522  13.988  -1.428  0.00  0.00    -0.297 N 
ATOM      9  H   ARG A   6      22.860  13.186  -1.404  0.00  0.00    +0.150 HD
BRANCH   8  10
ATOM     10  CA  ARG A   6      24.965  13.701  -1.602  0.00  0.00    +0.149 C 
BRANCH  10  11
ATOM     11  C   ARG A   6      25.540  14.198  -2.928  0.00  0.00    +0.241 C 
ATOM     12  O   ARG A   6      26.751  14.430  -3.032  0.00  0.00    -0.273 OA
ATOM     13  N   ASN A   7      24.684  14.330  -3.948  0.00  0.00    -0.298 N 
ATOM     14  H   ASN A   7      23.669  14.186  -3.773  0.00  0.00    +0.150 HD
BRANCH  13  15
ATOM     15  CA  ASN A   7      25.125  14.670  -5.302  0.00  0.00    +0.146 C 
BRANCH  15  16
ATOM     16  C   ASN A   7      25.791  16.041  -5.342  0.00  0.00    +0.227 C 
ATOM     17  O   ASN A   7      26.625  16.286  -6.202  0.00  0.00    -0.286 OA
ENDBRANCH  15  16
BRANCH  15  18
ATOM     18  CB  ASN A   7      23.954  14.670  -6.313  0.00  0.00    +0.112 C 
BRANCH  18  19
ATOM     19  CG  ASN A   7      23.389  13.277  -6.578  0.00  0.00    +0.222 C 
ATOM     20  OD1 ASN A   7      23.995  12.263  -6.211  0.00  0.00    -0.275 OA
ATOM     21  ND2 ASN A   7      22.208  13.222  -7.236  0.00  0.00    -0.329 N 
ATOM     22 HD21 ASN A   7      21.775  12.301  -7.452  0.00  0.00    +0.145 HD
ATOM     23 HD22 ASN A   7      21.733  14.101  -7.526  0.00  0.00    +0.145 HD
ENDBRANCH  18  19
ENDBRANCH  15  18
ENDBRANCH  13  15
ENDBRANCH  10  11
BRANCH  10  24
ATOM     24  CB  ARG A   6      25.236  12.182  -1.533  0.00  0.00    +0.033 C 
BRANCH  24  25
ATOM     25  CG  ARG A   6      24.771  11.448  -0.256  0.00  0.00    +0.045 C 
BRANCH  25  26
ATOM     26  CD  ARG A   6      25.450  11.968   1.012  0.00  0.00    +0.174 C 
BRANCH  26  27
ATOM     27  NE  ARG A   6      26.900  11.754   0.983  0.00  0.00    -0.265 N 
ATOM     28  CZ  ARG A   6      27.514  10.664   1.447  0.00  0.00    +0.342 C 
ATOM     29  NH2 ARG A   6      26.803   9.667   1.988  0.00  0.00    -0.292 N 
ATOM     30 HH21 ARG A   6      27.286   8.820   2.348  0.00  0.00    +0.255 HD
ATOM     31 HH22 ARG A   6      25.767   9.740   2.048  0.00  0.00    +0.255 HD
ATOM     32  NH1 ARG A   6      28.845  10.568   1.370  0.00  0.00    -0.292 N 
ATOM     33 HH11 ARG A   6      29.327   9.720   1.731  0.00  0.00    +0.255 HD
ATOM     34 HH12 ARG A   6      29.399  11.341   0.949  0.00  0.00    +0.255 HD
ATOM     35  HE  ARG A   6      27.491  12.504   0.572  0.00  0.00    +0.259 HD
ENDBRANCH  26  27
ENDBRANCH  25  26
ENDBRANCH  24  25
ENDBRANCH  10  24
ENDBRANCH   8  10
ENDBRANCH   5   6
BRANCH   5  36
ATOM     36  CB  SER A   5      21.077  15.482   0.288  0.00  0.00    +0.166 C 
BRANCH  36  37
ATOM     37  OG  SER A   5      21.491  14.331   1.021  0.00  0.00    -0.380 OA
ATOM     38  H   SER A   5      21.069  13.524   0.633  0.00  0.00    +0.211 HD
ENDBRANCH  36  37
ENDBRANCH   5  36
ENDBRANCH   2   5
BRANCH   1  39
ATOM     39  CA  SER A   4      20.335  12.600  -3.545  0.00  0.00    +0.178 C 
BRANCH  39  41
ATOM     40  C   MET A   3      19.019  12.015  -5.511  0.00  0.00    +0.241 C 
ATOM     41  N   SER A   4      19.902  12.805  -4.920  0.00  0.00    -0.295 N 
ATOM     42  H   SER A   4      20.301  13.601  -5.457  0.00  0.00    +0.150 HD
ATOM     43  O   MET A   3      18.507  11.056  -4.950  0.00  0.00    -0.273 OA
BRANCH  40  44
ATOM     44  CA  MET A   3      18.706  12.327  -6.973  0.00  0.00    +0.149 C 
BRANCH  44  47
ATOM     45  C   ALA A   2      19.718  10.361  -7.956  0.00  0.00    +0.241 C 
ATOM     46  O   ALA A   2      20.820  10.654  -7.514  0.00  0.00    -0.273 OA
ATOM     47  N   MET A   3      18.644  11.117  -7.772  0.00  0.00    -0.297 N 
ATOM     48  H   MET A   3      17.742  10.838  -8.208  0.00  0.00    +0.150 HD
BRANCH  45  49
ATOM     49  CA  ALA A   2      19.517   9.100  -8.787  0.00  0.00    +0.149 C 
ATOM     50  CB  ALA A   2      19.519   7.915  -7.920  0.00  0.00    +0.031 C 
BRANCH  49  52
ATOM     51  C   LEU A   1      20.588   9.933 -10.796  0.00  0.00    +0.238 C 
ATOM     52  N   ALA A   2      20.535   8.998  -9.851  0.00  0.00    -0.297 N 
ATOM     53  H   ALA A   2      21.205   8.202  -9.862  0.00  0.00    +0.150 HD
ATOM     54  O   LEU A   1      19.758  10.848 -10.885  0.00  0.00    -0.274 OA
BRANCH  51  55
ATOM     55  CA  LEU A   1      21.700   9.848 -11.798  0.00  0.00    +0.145 C 
BRANCH  55  56
ATOM     56  N   LEU A   1      21.125   9.785 -13.146  0.00  0.00    -0.238 NA
ATOM     57  H   LEU A   1      21.379  10.511 -13.846  0.00  0.00    +0.142 HD
ENDBRANCH  55  56
BRANCH  55  58
ATOM     58  CB  LEU A   1      22.603  11.077 -11.631  0.00  0.00    +0.026 C 
BRANCH  58  59
ATOM     59  CG  LEU A   1      23.282  11.199 -10.248  0.00  0.00    +0.002 C 
ATOM     60  CD2 LEU A   1      24.220  10.036  -9.889  0.00  0.00    +0.000 C 
ATOM     61  CD1 LEU A   1      24.079  12.539 -10.145  0.00  0.00    +0.000 C 
ENDBRANCH  58  59
ENDBRANCH  55  58
ENDBRANCH  51  55
ENDBRANCH  49  52
ENDBRANCH  45  49
ENDBRANCH  44  47
BRANCH  44  62
ATOM     62  CB  MET A   3      17.401  13.077  -7.107  0.00  0.00    +0.041 C 
BRANCH  62  63
ATOM     63  CG  MET A   3      17.202  13.597  -8.523  0.00  0.00    +0.060 C 
BRANCH  63  64
ATOM     64  SD  MET A   3      16.115  15.004  -8.472  0.00  0.00    -0.139 S 
ATOM     65  CE  MET A   3      17.305  16.159  -7.769  0.00  0.00    +0.069 C 
ENDBRANCH  63  64
ENDBRANCH  62  63
ENDBRANCH  44  62
ENDBRANCH  40  44
ENDBRANCH  39  41
BRANCH  39  66
ATOM     66  CB  SER A   4      21.375  11.469  -3.497  0.00  0.00    +0.166 C 
BRANCH  66  67
ATOM     67  OG  SER A   4      22.114  11.486  -2.297  0.00  0.00    -0.380 OA
ATOM     68  H   SER A   4      22.771  10.745  -2.305  0.00  0.00    +0.211 HD
ENDBRANCH  66  67
ENDBRANCH  39  66
ENDBRANCH   1  39
TORSDOF 29
REMARK  Name = ../refined-set-2016/3ioe/3ioe_pocket.pdb
REMARK  235 active torsions:
REMARK  status: ('A' for Active; 'I' for Inactive)
REMARK    1  A    between atoms: _1  and  _3
REMARK    2  A    between atoms: _3  and  _4
REMARK    3  A    between atoms: _3  and  _6
REMARK    4  A    between atoms: _10  and  _11
REMARK    5  A    between atoms: _16  and  _18
REMARK    6  A    between atoms: _18  and  _19
REMARK    7  A    between atoms: _18  and  _21
REMARK    8  A    between atoms: _21  and  _22
REMARK    9  A    between atoms: _25  and  _27
REMARK   10  A    between atoms: _27  and  _28
REMARK   11  A    between atoms: _27  and  _30
REMARK   12  A    between atoms: _30  and  _31
REMARK   13  A    between atoms: _31  and  _32
REMARK   14  A    between atoms: _34  and  _36
REMARK   15  A    between atoms: _36  and  _37
REMARK   16  A    between atoms: _39  and  _41
REMARK   17  A    between atoms: _41  and  _42
REMARK   18  A    between atoms: _45  and  _47
REMARK   19  A    between atoms: _47  and  _48
REMARK   20  A    between atoms: _47  and  _50
REMARK   21  A    between atoms: _50  and  _51
REMARK   22  A    between atoms: _54  and  _56
REMARK   23  A    between atoms: _56  and  _57
REMARK   24  A    between atoms: _56  and  _59
REMARK   25  A    between atoms: _59  and  _60
REMARK   26  A    between atoms: _65  and  _67
REMARK   27  A    between atoms: _67  and  _68
REMARK   28  A    between atoms: _67  and  _70
REMARK   29  A    between atoms: _70  and  _71
REMARK   30  A    between atoms: _71  and  _72
REMARK   31  A    between atoms: _75  and  _77
REMARK   32  A    between atoms: _77  and  _78
REMARK   33  A    between atoms: _80  and  _82
REMARK   34  A    between atoms: _82  and  _83
REMARK   35  A    between atoms: _82  and  _85
REMARK   36  A    between atoms: _85  and  _86
REMARK   37  A    between atoms: _91  and  _93
REMARK   38  A    between atoms: _93  and  _94
REMARK   39  A    between atoms: _93  and  _96
REMARK   40  A    between atoms: _96  and  _97
REMARK   41  A    between atoms: _100  and  _102
REMARK   42  A    between atoms: _102  and  _103
REMARK   43  A    between atoms: _106  and  _108
REMARK   44  A    between atoms: _108  and  _109
REMARK   45  A    between atoms: _108  and  _111
REMARK   46  A    between atoms: _111  and  _112
REMARK   47  A    between atoms: _115  and  _117
REMARK   48  A    between atoms: _117  and  _118
REMARK   49  A    between atoms: _117  and  _120
REMARK   50  A    between atoms: _123  and  _125
REMARK   51  A    between atoms: _125  and  _126
REMARK   52  A    between atoms: _125  and  _128
REMARK   53  A    between atoms: _128  and  _129
REMARK   54  A    between atoms: _131  and  _133
REMARK   55  A    between atoms: _133  and  _134
REMARK   56  A    between atoms: _133  and  _136
REMARK   57  A    between atoms: _136  and  _137
REMARK   58  A    between atoms: _140  and  _142
REMARK   59  A    between atoms: _142  and  _143
REMARK   60  A    between atoms: _142  and  _145
REMARK   61  A    between atoms: _145  and  _146
REMARK   62  A    between atoms: _152  and  _154
REMARK   63  A    between atoms: _154  and  _155
REMARK   64  A    between atoms: _154  and  _157
REMARK   65  A    between atoms: _160  and  _162
REMARK   66  A    between atoms: _162  and  _163
REMARK   67  A    between atoms: _162  and  _165
REMARK   68  A    between atoms: _165  and  _166
REMARK   69  A    between atoms: _172  and  _173
REMARK   70  A    between atoms: _178  and  _180
REMARK   71  A    between atoms: _180  and  _181
REMARK   72  A    between atoms: _180  and  _183
REMARK   73  A    between atoms: _183  and  _184
REMARK   74  A    between atoms: _184  and  _185
REMARK   75  A    between atoms: _190  and  _192
REMARK   76  A    between atoms: _192  and  _193
REMARK   77  A    between atoms: _192  and  _195
REMARK   78  A    between atoms: _195  and  _196
REMARK   79  A    between atoms: _202  and  _204
REMARK   80  A    between atoms: _204  and  _205
REMARK   81  A    between atoms: _204  and  _207
REMARK   82  A    between atoms: _207  and  _208
REMARK   83  A    between atoms: _213  and  _214
REMARK   84  A    between atoms: _216  and  _218
REMARK   85  A    between atoms: _218  and  _219
REMARK   86  A    between atoms: _218  and  _221
REMARK   87  A    between atoms: _221  and  _222
REMARK   88  A    between atoms: _227  and  _228
REMARK   89  A    between atoms: _230  and  _232
REMARK   90  A    between atoms: _232  and  _233
REMARK   91  A    between atoms: _232  and  _235
REMARK   92  A    between atoms: _235  and  _236
REMARK   93  A    between atoms: _241  and  _243
REMARK   94  A    between atoms: _243  and  _244
REMARK   95  A    between atoms: _243  and  _246
REMARK   96  A    between atoms: _246  and  _247
REMARK   97  A    between atoms: _253  and  _255
REMARK   98  A    between atoms: _255  and  _256
REMARK   99  A    between atoms: _258  and  _260
REMARK  100  A    between atoms: _260  and  _261
REMARK  101  A    between atoms: _260  and  _263
REMARK  102  A    between atoms: _266  and  _268
REMARK  103  A    between atoms: _268  and  _269
REMARK  104  A    between atoms: _268  and  _271
REMARK  105  A    between atoms: _271  and  _272
REMARK  106  A    between atoms: _275  and  _277
REMARK  107  A    between atoms: _277  and  _278
REMARK  108  A    between atoms: _277  and  _280
REMARK  109  A    between atoms: _280  and  _281
REMARK  110  A    between atoms: _284  and  _286
REMARK  111  A    between atoms: _286  and  _287
REMARK  112  A    between atoms: _286  and  _289
REMARK  113  A    between atoms: _292  and  _294
REMARK  114  A    between atoms: _294  and  _295
REMARK  115  A    between atoms: _294  and  _297
REMARK  116  A    between atoms: _300  and  _302
REMARK  117  A    between atoms: _302  and  _303
REMARK  118  A    between atoms: _302  and  _305
REMARK  119  A    between atoms: _305  and  _306
REMARK  120  A    between atoms: _309  and  _311
REMARK  121  A    between atoms: _311  and  _312
REMARK  122  A    between atoms: _311  and  _314
REMARK  123  A    between atoms: _314  and  _315
REMARK  124  A    between atoms: _318  and  _320
REMARK  125  A    between atoms: _320  and  _321
REMARK  126  A    between atoms: _320  and  _323
REMARK  127  A    between atoms: _323  and  _324
REMARK  128  A    between atoms: _330  and  _332
REMARK  129  A    between atoms: _332  and  _333
REMARK  130  A    between atoms: _332  and  _335
REMARK  131  A    between atoms: _335  and  _336
REMARK  132  A    between atoms: _342  and  _344
REMARK  133  A    between atoms: _344  and  _345
REMARK  134  A    between atoms: _347  and  _349
REMARK  135  A    between atoms: _349  and  _350
REMARK  136  A    between atoms: _349  and  _352
REMARK  137  A    between atoms: _352  and  _353
REMARK  138  A    between atoms: _353  and  _354
REMARK  139  A    between atoms: _357  and  _359
REMARK  140  A    between atoms: _359  and  _360
REMARK  141  A    between atoms: _359  and  _362
REMARK  142  A    between atoms: _362  and  _363
REMARK  143  A    between atoms: _363  and  _364
REMARK  144  A    between atoms: _364  and  _365
REMARK  145  A    between atoms: _365  and  _366
REMARK  146  A    between atoms: _370  and  _372
REMARK  147  A    between atoms: _372  and  _373
REMARK  148  A    between atoms: _372  and  _375
REMARK  149  A    between atoms: _375  and  _376
REMARK  150  A    between atoms: _379  and  _381
REMARK  151  A    between atoms: _381  and  _382
REMARK  152  A    between atoms: _381  and  _384
REMARK  153  A    between atoms: _384  and  _385
REMARK  154  A    between atoms: _390  and  _391
REMARK  155  A    between atoms: _393  and  _395
REMARK  156  A    between atoms: _395  and  _396
REMARK  157  A    between atoms: _395  and  _398
REMARK  158  A    between atoms: _398  and  _399
REMARK  159  A    between atoms: _399  and  _400
REMARK  160  A    between atoms: _405  and  _407
REMARK  161  A    between atoms: _407  and  _408
REMARK  162  A    between atoms: _407  and  _410
REMARK  163  A    between atoms: _410  and  _411
REMARK  164  A    between atoms: _414  and  _416
REMARK  165  A    between atoms: _416  and  _417
REMARK  166  A    between atoms: _416  and  _419
REMARK  167  A    between atoms: _419  and  _420
REMARK  168  A    between atoms: _423  and  _425
REMARK  169  A    between atoms: _425  and  _426
REMARK  170  A    between atoms: _425  and  _428
REMARK  171  A    between atoms: _431  and  _433
REMARK  172  A    between atoms: _433  and  _434
REMARK  173  A    between atoms: _436  and  _438
REMARK  174  A    between atoms: _438  and  _439
REMARK  175  A    between atoms: _438  and  _441
REMARK  176  A    between atoms: _445  and  _446
REMARK  177  A    between atoms: _451  and  _453
REMARK  178  A    between atoms: _453  and  _454
REMARK  179  A    between atoms: _453  and  _456
REMARK  180  A    between atoms: _456  and  _457
REMARK  181  A    between atoms: _460  and  _462
REMARK  182  A    between atoms: _462  and  _463
REMARK  183  A    between atoms: _462  and  _465
REMARK  184  A    between atoms: _468  and  _470
REMARK  185  A    between atoms: _470  and  _471
REMARK  186  A    between atoms: _470  and  _473
REMARK  187  A    between atoms: _473  and  _474
REMARK  188  A    between atoms: _474  and  _475
REMARK  189  A    between atoms: _475  and  _476
REMARK  190  A    between atoms: _485  and  _487
REMARK  191  A    between atoms: _487  and  _488
REMARK  192  A    between atoms: _487  and  _490
REMARK  193  A    between atoms: _490  and  _491
REMARK  194  A    between atoms: _491  and  _492
REMARK  195  A    between atoms: _495  and  _497
REMARK  196  A    between atoms: _497  and  _498
REMARK  197  A    between atoms: _497  and  _500
REMARK  198  A    between atoms: _500  and  _501
REMARK  199  A    between atoms: _504  and  _506
REMARK  200  A    between atoms: _506  and  _507
REMARK  201  A    between atoms: _510  and  _512
REMARK  202  A    between atoms: _512  and  _513
REMARK  203  A    between atoms: _512  and  _515
REMARK  204  A    between atoms: _515  and  _516
REMARK  205  A    between atoms: _516  and  _517
REMARK  206  A    between atoms: _519  and  _521
REMARK  207  A    between atoms: _521  and  _522
REMARK  208  A    between atoms: _521  and  _524
REMARK  209  A    between atoms: _524  and  _525
REMARK  210  A    between atoms: _527  and  _529
REMARK  211  A    between atoms: _529  and  _530
REMARK  212  A    between atoms: _529  and  _532
REMARK  213  A    between atoms: _532  and  _533
REMARK  214  A    between atoms: _535  and  _537
REMARK  215  A    between atoms: _537  and  _538
REMARK  216  A    between atoms: _537  and  _540
REMARK  217  A    between atoms: _540  and  _541
REMARK  218  A    between atoms: _541  and  _542
REMARK  219  A    between atoms: _542  and  _543
REMARK  220  A    between atoms: _552  and  _554
REMARK  221  A    between atoms: _554  and  _555
REMARK  222  A    between atoms: _554  and  _557
REMARK  223  A    between atoms: _557  and  _558
REMARK  224  A    between atoms: _563  and  _565
REMARK  225  A    between atoms: _565  and  _566
REMARK  226  A    between atoms: _565  and  _568
REMARK  227  A    between atoms: _568  and  _569
REMARK  228  A    between atoms: _572  and  _574
REMARK  229  A    between atoms: _574  and  _575
REMARK  230  A    between atoms: _574  and  _577
REMARK  231  A    between atoms: _577  and  _578
REMARK  232  A    between atoms: _581  and  _583
REMARK  233  A    between atoms: _583  and  _584
REMARK  234  A    between atoms: _583  and  _586
REMARK  235  A    between atoms: _586  and  _587
REMARK                            x       y       z     vdW  Elec       q    Type
REMARK                         _______ _______ _______ _____ _____    ______ ____
ROOT
ATOM      1  CA  ASP A   2      21.285   3.184  -6.423  0.00  0.00    +0.160 C 
ENDROOT
BRANCH   1   4
ATOM      2  C   LEU A   1      22.687   4.435  -4.916  0.00  0.00    +0.238 C 
ATOM      3  O   LEU A   1      22.210   5.538  -5.299  0.00  0.00    -0.274 OA
ATOM      4  N   ASP A   2      22.362   3.267  -5.449  0.00  0.00    -0.297 N 
ATOM      5  H   ASP A   2      22.878   2.408  -5.171  0.00  0.00    +0.150 HD
BRANCH   2   6
ATOM      6  CA  LEU A   1      23.614   4.347  -3.749  0.00  0.00    +0.145 C 
BRANCH   6   7
ATOM      7  N   LEU A   1      24.423   5.572  -3.689  0.00  0.00    -0.238 NA
ATOM      8  H   LEU A   1      23.937   6.488  -3.614  0.00  0.00    +0.142 HD
ENDBRANCH   6   7
BRANCH   6   9
ATOM      9  CB  LEU A   1      22.720   4.209  -2.502  0.00  0.00    +0.026 C 
BRANCH   9  10
ATOM     10  CG  LEU A   1      23.293   4.283  -1.101  0.00  0.00    +0.002 C 
ATOM     11  CD2 LEU A   1      22.223   3.747  -0.188  0.00  0.00    +0.000 C 
ATOM     12  CD1 LEU A   1      24.553   3.443  -1.007  0.00  0.00    +0.000 C 
ENDBRANCH   9  10
ENDBRANCH   6   9
ENDBRANCH   2   6
ENDBRANCH   1   4
BRANCH   1  13
ATOM     13  C   ASP A   2      20.829   1.726  -6.437  0.00  0.00    +0.241 C 
ATOM     14  O   ASP A   2      21.570   0.806  -6.024  0.00  0.00    -0.273 OA
ATOM     15  N   ASN A   3      19.597   1.515  -6.872  0.00  0.00    -0.298 N 
ATOM     16  H   ASN A   3      18.975   2.318  -7.095  0.00  0.00    +0.150 HD
BRANCH  15  17
ATOM     17  CA  ASN A   3      19.118   0.149  -7.036  0.00  0.00    +0.146 C 
BRANCH  17  18
ATOM     18  C   ASN A   3      18.063   0.062  -8.126  0.00  0.00    +0.227 C 
ATOM     19  O   ASN A   3      17.527   1.066  -8.581  0.00  0.00    -0.286 OA
ENDBRANCH  17  18
BRANCH  17  20
ATOM     20  CB  ASN A   3      18.540  -0.371  -5.716  0.00  0.00    +0.112 C 
BRANCH  20  21
ATOM     21  CG  ASN A   3      17.284   0.380  -5.337  0.00  0.00    +0.222 C 
ATOM     22  ND2 ASN A   3      17.462   1.433  -4.581  0.00  0.00    -0.329 N 
ATOM     23 HD21 ASN A   3      18.416   1.679  -4.248  0.00  0.00    +0.145 HD
ATOM     24 HD22 ASN A   3      16.649   2.024  -4.313  0.00  0.00    +0.145 HD
ATOM     25  OD1 ASN A   3      16.165   0.039  -5.764  0.00  0.00    -0.275 OA
ENDBRANCH  20  21
ENDBRANCH  17  20
ENDBRANCH  15  17
ENDBRANCH   1  13
BRANCH   1  26
ATOM     26  CB  ASP A   2      21.762   3.660  -7.807  0.00  0.00    +0.143 C 
BRANCH  26  27
ATOM     27  CG  ASP A   2      20.604   4.035  -8.756  0.00  0.00    +0.367 C 
ATOM     28  OD2 ASP A   2      19.403   3.850  -8.428  0.00  0.00    -0.246 OA
ATOM     29  OD1 ASP A   2      20.898   4.539  -9.853  0.00  0.00    -0.246 OA
ENDBRANCH  26  27
ENDBRANCH   1  26
TORSDOF 12
REMARK  Name = ../refined-set-2016/3ioe/3ioe_pocket.pdb
REMARK  235 active torsions:
REMARK  status: ('A' for Active; 'I' for Inactive)
REMARK    1  A    between atoms: _1  and  _3
REMARK    2  A    between atoms: _3  and  _4
REMARK    3  A    between atoms: _3  and  _6
REMARK    4  A    between atoms: _10  and  _11
REMARK    5  A    between atoms: _16  and  _18
REMARK    6  A    between atoms: _18  and  _19
REMARK    7  A    between atoms: _18  and  _21
REMARK    8  A    between atoms: _21  and  _22
REMARK    9  A    between atoms: _25  and  _27
REMARK   10  A    between atoms: _27  and  _28
REMARK   11  A    between atoms: _27  and  _30
REMARK   12  A    between atoms: _30  and  _31
REMARK   13  A    between atoms: _31  and  _32
REMARK   14  A    between atoms: _34  and  _36
REMARK   15  A    between atoms: _36  and  _37
REMARK   16  A    between atoms: _39  and  _41
REMARK   17  A    between atoms: _41  and  _42
REMARK   18  A    between atoms: _45  and  _47
REMARK   19  A    between atoms: _47  and  _48
REMARK   20  A    between atoms: _47  and  _50
REMARK   21  A    between atoms: _50  and  _51
REMARK   22  A    between atoms: _54  and  _56
REMARK   23  A    between atoms: _56  and  _57
REMARK   24  A    between atoms: _56  and  _59
REMARK   25  A    between atoms: _59  and  _60
REMARK   26  A    between atoms: _65  and  _67
REMARK   27  A    between atoms: _67  and  _68
REMARK   28  A    between atoms: _67  and  _70
REMARK   29  A    between atoms: _70  and  _71
REMARK   30  A    between atoms: _71  and  _72
REMARK   31  A    between atoms: _75  and  _77
REMARK   32  A    between atoms: _77  and  _78
REMARK   33  A    between atoms: _80  and  _82
REMARK   34  A    between atoms: _82  and  _83
REMARK   35  A    between atoms: _82  and  _85
REMARK   36  A    between atoms: _85  and  _86
REMARK   37  A    between atoms: _91  and  _93
REMARK   38  A    between atoms: _93  and  _94
REMARK   39  A    between atoms: _93  and  _96
REMARK   40  A    between atoms: _96  and  _97
REMARK   41  A    between atoms: _100  and  _102
REMARK   42  A    between atoms: _102  and  _103
REMARK   43  A    between atoms: _106  and  _108
REMARK   44  A    between atoms: _108  and  _109
REMARK   45  A    between atoms: _108  and  _111
REMARK   46  A    between atoms: _111  and  _112
REMARK   47  A    between atoms: _115  and  _117
REMARK   48  A    between atoms: _117  and  _118
REMARK   49  A    between atoms: _117  and  _120
REMARK   50  A    between atoms: _123  and  _125
REMARK   51  A    between atoms: _125  and  _126
REMARK   52  A    between atoms: _125  and  _128
REMARK   53  A    between atoms: _128  and  _129
REMARK   54  A    between atoms: _131  and  _133
REMARK   55  A    between atoms: _133  and  _134
REMARK   56  A    between atoms: _133  and  _136
REMARK   57  A    between atoms: _136  and  _137
REMARK   58  A    between atoms: _140  and  _142
REMARK   59  A    between atoms: _142  and  _143
REMARK   60  A    between atoms: _142  and  _145
REMARK   61  A    between atoms: _145  and  _146
REMARK   62  A    between atoms: _152  and  _154
REMARK   63  A    between atoms: _154  and  _155
REMARK   64  A    between atoms: _154  and  _157
REMARK   65  A    between atoms: _160  and  _162
REMARK   66  A    between atoms: _162  and  _163
REMARK   67  A    between atoms: _162  and  _165
REMARK   68  A    between atoms: _165  and  _166
REMARK   69  A    between atoms: _172  and  _173
REMARK   70  A    between atoms: _178  and  _180
REMARK   71  A    between atoms: _180  and  _181
REMARK   72  A    between atoms: _180  and  _183
REMARK   73  A    between atoms: _183  and  _184
REMARK   74  A    between atoms: _184  and  _185
REMARK   75  A    between atoms: _190  and  _192
REMARK   76  A    between atoms: _192  and  _193
REMARK   77  A    between atoms: _192  and  _195
REMARK   78  A    between atoms: _195  and  _196
REMARK   79  A    between atoms: _202  and  _204
REMARK   80  A    between atoms: _204  and  _205
REMARK   81  A    between atoms: _204  and  _207
REMARK   82  A    between atoms: _207  and  _208
REMARK   83  A    between atoms: _213  and  _214
REMARK   84  A    between atoms: _216  and  _218
REMARK   85  A    between atoms: _218  and  _219
REMARK   86  A    between atoms: _218  and  _221
REMARK   87  A    between atoms: _221  and  _222
REMARK   88  A    between atoms: _227  and  _228
REMARK   89  A    between atoms: _230  and  _232
REMARK   90  A    between atoms: _232  and  _233
REMARK   91  A    between atoms: _232  and  _235
REMARK   92  A    between atoms: _235  and  _236
REMARK   93  A    between atoms: _241  and  _243
REMARK   94  A    between atoms: _243  and  _244
REMARK   95  A    between atoms: _243  and  _246
REMARK   96  A    between atoms: _246  and  _247
REMARK   97  A    between atoms: _253  and  _255
REMARK   98  A    between atoms: _255  and  _256
REMARK   99  A    between atoms: _258  and  _260
REMARK  100  A    between atoms: _260  and  _261
REMARK  101  A    between atoms: _260  and  _263
REMARK  102  A    between atoms: _266  and  _268
REMARK  103  A    between atoms: _268  and  _269
REMARK  104  A    between atoms: _268  and  _271
REMARK  105  A    between atoms: _271  and  _272
REMARK  106  A    between atoms: _275  and  _277
REMARK  107  A    between atoms: _277  and  _278
REMARK  108  A    between atoms: _277  and  _280
REMARK  109  A    between atoms: _280  and  _281
REMARK  110  A    between atoms: _284  and  _286
REMARK  111  A    between atoms: _286  and  _287
REMARK  112  A    between atoms: _286  and  _289
REMARK  113  A    between atoms: _292  and  _294
REMARK  114  A    between atoms: _294  and  _295
REMARK  115  A    between atoms: _294  and  _297
REMARK  116  A    between atoms: _300  and  _302
REMARK  117  A    between atoms: _302  and  _303
REMARK  118  A    between atoms: _302  and  _305
REMARK  119  A    between atoms: _305  and  _306
REMARK  120  A    between atoms: _309  and  _311
REMARK  121  A    between atoms: _311  and  _312
REMARK  122  A    between atoms: _311  and  _314
REMARK  123  A    between atoms: _314  and  _315
REMARK  124  A    between atoms: _318  and  _320
REMARK  125  A    between atoms: _320  and  _321
REMARK  126  A    between atoms: _320  and  _323
REMARK  127  A    between atoms: _323  and  _324
REMARK  128  A    between atoms: _330  and  _332
REMARK  129  A    between atoms: _332  and  _333
REMARK  130  A    between atoms: _332  and  _335
REMARK  131  A    between atoms: _335  and  _336
REMARK  132  A    between atoms: _342  and  _344
REMARK  133  A    between atoms: _344  and  _345
REMARK  134  A    between atoms: _347  and  _349
REMARK  135  A    between atoms: _349  and  _350
REMARK  136  A    between atoms: _349  and  _352
REMARK  137  A    between atoms: _352  and  _353
REMARK  138  A    between atoms: _353  and  _354
REMARK  139  A    between atoms: _357  and  _359
REMARK  140  A    between atoms: _359  and  _360
REMARK  141  A    between atoms: _359  and  _362
REMARK  142  A    between atoms: _362  and  _363
REMARK  143  A    between atoms: _363  and  _364
REMARK  144  A    between atoms: _364  and  _365
REMARK  145  A    between atoms: _365  and  _366
REMARK  146  A    between atoms: _370  and  _372
REMARK  147  A    between atoms: _372  and  _373
REMARK  148  A    between atoms: _372  and  _375
REMARK  149  A    between atoms: _375  and  _376
REMARK  150  A    between atoms: _379  and  _381
REMARK  151  A    between atoms: _381  and  _382
REMARK  152  A    between atoms: _381  and  _384
REMARK  153  A    between atoms: _384  and  _385
REMARK  154  A    between atoms: _390  and  _391
REMARK  155  A    between atoms: _393  and  _395
REMARK  156  A    between atoms: _395  and  _396
REMARK  157  A    between atoms: _395  and  _398
REMARK  158  A    between atoms: _398  and  _399
REMARK  159  A    between atoms: _399  and  _400
REMARK  160  A    between atoms: _405  and  _407
REMARK  161  A    between atoms: _407  and  _408
REMARK  162  A    between atoms: _407  and  _410
REMARK  163  A    between atoms: _410  and  _411
REMARK  164  A    between atoms: _414  and  _416
REMARK  165  A    between atoms: _416  and  _417
REMARK  166  A    between atoms: _416  and  _419
REMARK  167  A    between atoms: _419  and  _420
REMARK  168  A    between atoms: _423  and  _425
REMARK  169  A    between atoms: _425  and  _426
REMARK  170  A    between atoms: _425  and  _428
REMARK  171  A    between atoms: _431  and  _433
REMARK  172  A    between atoms: _433  and  _434
REMARK  173  A    between atoms: _436  and  _438
REMARK  174  A    between atoms: _438  and  _439
REMARK  175  A    between atoms: _438  and  _441
REMARK  176  A    between atoms: _445  and  _446
REMARK  177  A    between atoms: _451  and  _453
REMARK  178  A    between atoms: _453  and  _454
REMARK  179  A    between atoms: _453  and  _456
REMARK  180  A    between atoms: _456  and  _457
REMARK  181  A    between atoms: _460  and  _462
REMARK  182  A    between atoms: _462  and  _463
REMARK  183  A    between atoms: _462  and  _465
REMARK  184  A    between atoms: _468  and  _470
REMARK  185  A    between atoms: _470  and  _471
REMARK  186  A    between atoms: _470  and  _473
REMARK  187  A    between atoms: _473  and  _474
REMARK  188  A    between atoms: _474  and  _475
REMARK  189  A    between atoms: _475  and  _476
REMARK  190  A    between atoms: _485  and  _487
REMARK  191  A    between atoms: _487  and  _488
REMARK  192  A    between atoms: _487  and  _490
REMARK  193  A    between atoms: _490  and  _491
REMARK  194  A    between atoms: _491  and  _492
REMARK  195  A    between atoms: _495  and  _497
REMARK  196  A    between atoms: _497  and  _498
REMARK  197  A    between atoms: _497  and  _500
REMARK  198  A    between atoms: _500  and  _501
REMARK  199  A    between atoms: _504  and  _506
REMARK  200  A    between atoms: _506  and  _507
REMARK  201  A    between atoms: _510  and  _512
REMARK  202  A    between atoms: _512  and  _513
REMARK  203  A    between atoms: _512  and  _515
REMARK  204  A    between atoms: _515  and  _516
REMARK  205  A    between atoms: _516  and  _517
REMARK  206  A    between atoms: _519  and  _521
REMARK  207  A    between atoms: _521  and  _522
REMARK  208  A    between atoms: _521  and  _524
REMARK  209  A    between atoms: _524  and  _525
REMARK  210  A    between atoms: _527  and  _529
REMARK  211  A    between atoms: _529  and  _530
REMARK  212  A    between atoms: _529  and  _532
REMARK  213  A    between atoms: _532  and  _533
REMARK  214  A    between atoms: _535  and  _537
REMARK  215  A    between atoms: _537  and  _538
REMARK  216  A    between atoms: _537  and  _540
REMARK  217  A    between atoms: _540  and  _541
REMARK  218  A    between atoms: _541  and  _542
REMARK  219  A    between atoms: _542  and  _543
REMARK  220  A    between atoms: _552  and  _554
REMARK  221  A    between atoms: _554  and  _555
REMARK  222  A    between atoms: _554  and  _557
REMARK  223  A    between atoms: _557  and  _558
REMARK  224  A    between atoms: _563  and  _565
REMARK  225  A    between atoms: _565  and  _566
REMARK  226  A    between atoms: _565  and  _568
REMARK  227  A    between atoms: _568  and  _569
REMARK  228  A    between atoms: _572  and  _574
REMARK  229  A    between atoms: _574  and  _575
REMARK  230  A    between atoms: _574  and  _577
REMARK  231  A    between atoms: _577  and  _578
REMARK  232  A    between atoms: _581  and  _583
REMARK  233  A    between atoms: _583  and  _584
REMARK  234  A    between atoms: _583  and  _586
REMARK  235  A    between atoms: _586  and  _587
REMARK                            x       y       z     vdW  Elec       q    Type
REMARK                         _______ _______ _______ _____ _____    ______ ____
ROOT
ATOM      1  O   HOH     1      11.818  13.070   9.901  0.00  0.00    +0.000 OA
ENDROOT
TORSDOF 0
REMARK  Name = ../refined-set-2016/3ioe/3ioe_pocket.pdb
REMARK  235 active torsions:
REMARK  status: ('A' for Active; 'I' for Inactive)
REMARK    1  A    between atoms: _1  and  _3
REMARK    2  A    between atoms: _3  and  _4
REMARK    3  A    between atoms: _3  and  _6
REMARK    4  A    between atoms: _10  and  _11
REMARK    5  A    between atoms: _16  and  _18
REMARK    6  A    between atoms: _18  and  _19
REMARK    7  A    between atoms: _18  and  _21
REMARK    8  A    between atoms: _21  and  _22
REMARK    9  A    between atoms: _25  and  _27
REMARK   10  A    between atoms: _27  and  _28
REMARK   11  A    between atoms: _27  and  _30
REMARK   12  A    between atoms: _30  and  _31
REMARK   13  A    between atoms: _31  and  _32
REMARK   14  A    between atoms: _34  and  _36
REMARK   15  A    between atoms: _36  and  _37
REMARK   16  A    between atoms: _39  and  _41
REMARK   17  A    between atoms: _41  and  _42
REMARK   18  A    between atoms: _45  and  _47
REMARK   19  A    between atoms: _47  and  _48
REMARK   20  A    between atoms: _47  and  _50
REMARK   21  A    between atoms: _50  and  _51
REMARK   22  A    between atoms: _54  and  _56
REMARK   23  A    between atoms: _56  and  _57
REMARK   24  A    between atoms: _56  and  _59
REMARK   25  A    between atoms: _59  and  _60
REMARK   26  A    between atoms: _65  and  _67
REMARK   27  A    between atoms: _67  and  _68
REMARK   28  A    between atoms: _67  and  _70
REMARK   29  A    between atoms: _70  and  _71
REMARK   30  A    between atoms: _71  and  _72
REMARK   31  A    between atoms: _75  and  _77
REMARK   32  A    between atoms: _77  and  _78
REMARK   33  A    between atoms: _80  and  _82
REMARK   34  A    between atoms: _82  and  _83
REMARK   35  A    between atoms: _82  and  _85
REMARK   36  A    between atoms: _85  and  _86
REMARK   37  A    between atoms: _91  and  _93
REMARK   38  A    between atoms: _93  and  _94
REMARK   39  A    between atoms: _93  and  _96
REMARK   40  A    between atoms: _96  and  _97
REMARK   41  A    between atoms: _100  and  _102
REMARK   42  A    between atoms: _102  and  _103
REMARK   43  A    between atoms: _106  and  _108
REMARK   44  A    between atoms: _108  and  _109
REMARK   45  A    between atoms: _108  and  _111
REMARK   46  A    between atoms: _111  and  _112
REMARK   47  A    between atoms: _115  and  _117
REMARK   48  A    between atoms: _117  and  _118
REMARK   49  A    between atoms: _117  and  _120
REMARK   50  A    between atoms: _123  and  _125
REMARK   51  A    between atoms: _125  and  _126
REMARK   52  A    between atoms: _125  and  _128
REMARK   53  A    between atoms: _128  and  _129
REMARK   54  A    between atoms: _131  and  _133
REMARK   55  A    between atoms: _133  and  _134
REMARK   56  A    between atoms: _133  and  _136
REMARK   57  A    between atoms: _136  and  _137
REMARK   58  A    between atoms: _140  and  _142
REMARK   59  A    between atoms: _142  and  _143
REMARK   60  A    between atoms: _142  and  _145
REMARK   61  A    between atoms: _145  and  _146
REMARK   62  A    between atoms: _152  and  _154
REMARK   63  A    between atoms: _154  and  _155
REMARK   64  A    between atoms: _154  and  _157
REMARK   65  A    between atoms: _160  and  _162
REMARK   66  A    between atoms: _162  and  _163
REMARK   67  A    between atoms: _162  and  _165
REMARK   68  A    between atoms: _165  and  _166
REMARK   69  A    between atoms: _172  and  _173
REMARK   70  A    between atoms: _178  and  _180
REMARK   71  A    between atoms: _180  and  _181
REMARK   72  A    between atoms: _180  and  _183
REMARK   73  A    between atoms: _183  and  _184
REMARK   74  A    between atoms: _184  and  _185
REMARK   75  A    between atoms: _190  and  _192
REMARK   76  A    between atoms: _192  and  _193
REMARK   77  A    between atoms: _192  and  _195
REMARK   78  A    between atoms: _195  and  _196
REMARK   79  A    between atoms: _202  and  _204
REMARK   80  A    between atoms: _204  and  _205
REMARK   81  A    between atoms: _204  and  _207
REMARK   82  A    between atoms: _207  and  _208
REMARK   83  A    between atoms: _213  and  _214
REMARK   84  A    between atoms: _216  and  _218
REMARK   85  A    between atoms: _218  and  _219
REMARK   86  A    between atoms: _218  and  _221
REMARK   87  A    between atoms: _221  and  _222
REMARK   88  A    between atoms: _227  and  _228
REMARK   89  A    between atoms: _230  and  _232
REMARK   90  A    between atoms: _232  and  _233
REMARK   91  A    between atoms: _232  and  _235
REMARK   92  A    between atoms: _235  and  _236
REMARK   93  A    between atoms: _241  and  _243
REMARK   94  A    between atoms: _243  and  _244
REMARK   95  A    between atoms: _243  and  _246
REMARK   96  A    between atoms: _246  and  _247
REMARK   97  A    between atoms: _253  and  _255
REMARK   98  A    between atoms: _255  and  _256
REMARK   99  A    between atoms: _258  and  _260
REMARK  100  A    between atoms: _260  and  _261
REMARK  101  A    between atoms: _260  and  _263
REMARK  102  A    between atoms: _266  and  _268
REMARK  103  A    between atoms: _268  and  _269
REMARK  104  A    between atoms: _268  and  _271
REMARK  105  A    between atoms: _271  and  _272
REMARK  106  A    between atoms: _275  and  _277
REMARK  107  A    between atoms: _277  and  _278
REMARK  108  A    between atoms: _277  and  _280
REMARK  109  A    between atoms: _280  and  _281
REMARK  110  A    between atoms: _284  and  _286
REMARK  111  A    between atoms: _286  and  _287
REMARK  112  A    between atoms: _286  and  _289
REMARK  113  A    between atoms: _292  and  _294
REMARK  114  A    between atoms: _294  and  _295
REMARK  115  A    between atoms: _294  and  _297
REMARK  116  A    between atoms: _300  and  _302
REMARK  117  A    between atoms: _302  and  _303
REMARK  118  A    between atoms: _302  and  _305
REMARK  119  A    between atoms: _305  and  _306
REMARK  120  A    between atoms: _309  and  _311
REMARK  121  A    between atoms: _311  and  _312
REMARK  122  A    between atoms: _311  and  _314
REMARK  123  A    between atoms: _314  and  _315
REMARK  124  A    between atoms: _318  and  _320
REMARK  125  A    between atoms: _320  and  _321
REMARK  126  A    between atoms: _320  and  _323
REMARK  127  A    between atoms: _323  and  _324
REMARK  128  A    between atoms: _330  and  _332
REMARK  129  A    between atoms: _332  and  _333
REMARK  130  A    between atoms: _332  and  _335
REMARK  131  A    between atoms: _335  and  _336
REMARK  132  A    between atoms: _342  and  _344
REMARK  133  A    between atoms: _344  and  _345
REMARK  134  A    between atoms: _347  and  _349
REMARK  135  A    between atoms: _349  and  _350
REMARK  136  A    between atoms: _349  and  _352
REMARK  137  A    between atoms: _352  and  _353
REMARK  138  A    between atoms: _353  and  _354
REMARK  139  A    between atoms: _357  and  _359
REMARK  140  A    between atoms: _359  and  _360
REMARK  141  A    between atoms: _359  and  _362
REMARK  142  A    between atoms: _362  and  _363
REMARK  143  A    between atoms: _363  and  _364
REMARK  144  A    between atoms: _364  and  _365
REMARK  145  A    between atoms: _365  and  _366
REMARK  146  A    between atoms: _370  and  _372
REMARK  147  A    between atoms: _372  and  _373
REMARK  148  A    between atoms: _372  and  _375
REMARK  149  A    between atoms: _375  and  _376
REMARK  150  A    between atoms: _379  and  _381
REMARK  151  A    between atoms: _381  and  _382
REMARK  152  A    between atoms: _381  and  _384
REMARK  153  A    between atoms: _384  and  _385
REMARK  154  A    between atoms: _390  and  _391
REMARK  155  A    between atoms: _393  and  _395
REMARK  156  A    between atoms: _395  and  _396
REMARK  157  A    between atoms: _395  and  _398
REMARK  158  A    between atoms: _398  and  _399
REMARK  159  A    between atoms: _399  and  _400
REMARK  160  A    between atoms: _405  and  _407
REMARK  161  A    between atoms: _407  and  _408
REMARK  162  A    between atoms: _407  and  _410
REMARK  163  A    between atoms: _410  and  _411
REMARK  164  A    between atoms: _414  and  _416
REMARK  165  A    between atoms: _416  and  _417
REMARK  166  A    between atoms: _416  and  _419
REMARK  167  A    between atoms: _419  and  _420
REMARK  168  A    between atoms: _423  and  _425
REMARK  169  A    between atoms: _425  and  _426
REMARK  170  A    between atoms: _425  and  _428
REMARK  171  A    between atoms: _431  and  _433
REMARK  172  A    between atoms: _433  and  _434
REMARK  173  A    between atoms: _436  and  _438
REMARK  174  A    between atoms: _438  and  _439
REMARK  175  A    between atoms: _438  and  _441
REMARK  176  A    between atoms: _445  and  _446
REMARK  177  A    between atoms: _451  and  _453
REMARK  178  A    between atoms: _453  and  _454
REMARK  179  A    between atoms: _453  and  _456
REMARK  180  A    between atoms: _456  and  _457
REMARK  181  A    between atoms: _460  and  _462
REMARK  182  A    between atoms: _462  and  _463
REMARK  183  A    between atoms: _462  and  _465
REMARK  184  A    between atoms: _468  and  _470
REMARK  185  A    between atoms: _470  and  _471
REMARK  186  A    between atoms: _470  and  _473
REMARK  187  A    between atoms: _473  and  _474
REMARK  188  A    between atoms: _474  and  _475
REMARK  189  A    between atoms: _475  and  _476
REMARK  190  A    between atoms: _485  and  _487
REMARK  191  A    between atoms: _487  and  _488
REMARK  192  A    between atoms: _487  and  _490
REMARK  193  A    between atoms: _490  and  _491
REMARK  194  A    between atoms: _491  and  _492
REMARK  195  A    between atoms: _495  and  _497
REMARK  196  A    between atoms: _497  and  _498
REMARK  197  A    between atoms: _497  and  _500
REMARK  198  A    between atoms: _500  and  _501
REMARK  199  A    between atoms: _504  and  _506
REMARK  200  A    between atoms: _506  and  _507
REMARK  201  A    between atoms: _510  and  _512
REMARK  202  A    between atoms: _512  and  _513
REMARK  203  A    between atoms: _512  and  _515
REMARK  204  A    between atoms: _515  and  _516
REMARK  205  A    between atoms: _516  and  _517
REMARK  206  A    between atoms: _519  and  _521
REMARK  207  A    between atoms: _521  and  _522
REMARK  208  A    between atoms: _521  and  _524
REMARK  209  A    between atoms: _524  and  _525
REMARK  210  A    between atoms: _527  and  _529
REMARK  211  A    between atoms: _529  and  _530
REMARK  212  A    between atoms: _529  and  _532
REMARK  213  A    between atoms: _532  and  _533
REMARK  214  A    between atoms: _535  and  _537
REMARK  215  A    between atoms: _537  and  _538
REMARK  216  A    between atoms: _537  and  _540
REMARK  217  A    between atoms: _540  and  _541
REMARK  218  A    between atoms: _541  and  _542
REMARK  219  A    between atoms: _542  and  _543
REMARK  220  A    between atoms: _552  and  _554
REMARK  221  A    between atoms: _554  and  _555
REMARK  222  A    between atoms: _554  and  _557
REMARK  223  A    between atoms: _557  and  _558
REMARK  224  A    between atoms: _563  and  _565
REMARK  225  A    between atoms: _565  and  _566
REMARK  226  A    between atoms: _565  and  _568
REMARK  227  A    between atoms: _568  and  _569
REMARK  228  A    between atoms: _572  and  _574
REMARK  229  A    between atoms: _574  and  _575
REMARK  230  A    between atoms: _574  and  _577
REMARK  231  A    between atoms: _577  and  _578
REMARK  232  A    between atoms: _581  and  _583
REMARK  233  A    between atoms: _583  and  _584
REMARK  234  A    between atoms: _583  and  _586
REMARK  235  A    between atoms: _586  and  _587
REMARK                            x       y       z     vdW  Elec       q    Type
REMARK                         _______ _______ _______ _____ _____    ______ ____
ROOT
ATOM      1  O   HOH     1      13.592   4.338   1.785  0.00  0.00    +0.000 OA
ENDROOT
TORSDOF 0
REMARK  Name = ../refined-set-2016/3ioe/3ioe_pocket.pdb
REMARK  235 active torsions:
REMARK  status: ('A' for Active; 'I' for Inactive)
REMARK    1  A    between atoms: _1  and  _3
REMARK    2  A    between atoms: _3  and  _4
REMARK    3  A    between atoms: _3  and  _6
REMARK    4  A    between atoms: _10  and  _11
REMARK    5  A    between atoms: _16  and  _18
REMARK    6  A    between atoms: _18  and  _19
REMARK    7  A    between atoms: _18  and  _21
REMARK    8  A    between atoms: _21  and  _22
REMARK    9  A    between atoms: _25  and  _27
REMARK   10  A    between atoms: _27  and  _28
REMARK   11  A    between atoms: _27  and  _30
REMARK   12  A    between atoms: _30  and  _31
REMARK   13  A    between atoms: _31  and  _32
REMARK   14  A    between atoms: _34  and  _36
REMARK   15  A    between atoms: _36  and  _37
REMARK   16  A    between atoms: _39  and  _41
REMARK   17  A    between atoms: _41  and  _42
REMARK   18  A    between atoms: _45  and  _47
REMARK   19  A    between atoms: _47  and  _48
REMARK   20  A    between atoms: _47  and  _50
REMARK   21  A    between atoms: _50  and  _51
REMARK   22  A    between atoms: _54  and  _56
REMARK   23  A    between atoms: _56  and  _57
REMARK   24  A    between atoms: _56  and  _59
REMARK   25  A    between atoms: _59  and  _60
REMARK   26  A    between atoms: _65  and  _67
REMARK   27  A    between atoms: _67  and  _68
REMARK   28  A    between atoms: _67  and  _70
REMARK   29  A    between atoms: _70  and  _71
REMARK   30  A    between atoms: _71  and  _72
REMARK   31  A    between atoms: _75  and  _77
REMARK   32  A    between atoms: _77  and  _78
REMARK   33  A    between atoms: _80  and  _82
REMARK   34  A    between atoms: _82  and  _83
REMARK   35  A    between atoms: _82  and  _85
REMARK   36  A    between atoms: _85  and  _86
REMARK   37  A    between atoms: _91  and  _93
REMARK   38  A    between atoms: _93  and  _94
REMARK   39  A    between atoms: _93  and  _96
REMARK   40  A    between atoms: _96  and  _97
REMARK   41  A    between atoms: _100  and  _102
REMARK   42  A    between atoms: _102  and  _103
REMARK   43  A    between atoms: _106  and  _108
REMARK   44  A    between atoms: _108  and  _109
REMARK   45  A    between atoms: _108  and  _111
REMARK   46  A    between atoms: _111  and  _112
REMARK   47  A    between atoms: _115  and  _117
REMARK   48  A    between atoms: _117  and  _118
REMARK   49  A    between atoms: _117  and  _120
REMARK   50  A    between atoms: _123  and  _125
REMARK   51  A    between atoms: _125  and  _126
REMARK   52  A    between atoms: _125  and  _128
REMARK   53  A    between atoms: _128  and  _129
REMARK   54  A    between atoms: _131  and  _133
REMARK   55  A    between atoms: _133  and  _134
REMARK   56  A    between atoms: _133  and  _136
REMARK   57  A    between atoms: _136  and  _137
REMARK   58  A    between atoms: _140  and  _142
REMARK   59  A    between atoms: _142  and  _143
REMARK   60  A    between atoms: _142  and  _145
REMARK   61  A    between atoms: _145  and  _146
REMARK   62  A    between atoms: _152  and  _154
REMARK   63  A    between atoms: _154  and  _155
REMARK   64  A    between atoms: _154  and  _157
REMARK   65  A    between atoms: _160  and  _162
REMARK   66  A    between atoms: _162  and  _163
REMARK   67  A    between atoms: _162  and  _165
REMARK   68  A    between atoms: _165  and  _166
REMARK   69  A    between atoms: _172  and  _173
REMARK   70  A    between atoms: _178  and  _180
REMARK   71  A    between atoms: _180  and  _181
REMARK   72  A    between atoms: _180  and  _183
REMARK   73  A    between atoms: _183  and  _184
REMARK   74  A    between atoms: _184  and  _185
REMARK   75  A    between atoms: _190  and  _192
REMARK   76  A    between atoms: _192  and  _193
REMARK   77  A    between atoms: _192  and  _195
REMARK   78  A    between atoms: _195  and  _196
REMARK   79  A    between atoms: _202  and  _204
REMARK   80  A    between atoms: _204  and  _205
REMARK   81  A    between atoms: _204  and  _207
REMARK   82  A    between atoms: _207  and  _208
REMARK   83  A    between atoms: _213  and  _214
REMARK   84  A    between atoms: _216  and  _218
REMARK   85  A    between atoms: _218  and  _219
REMARK   86  A    between atoms: _218  and  _221
REMARK   87  A    between atoms: _221  and  _222
REMARK   88  A    between atoms: _227  and  _228
REMARK   89  A    between atoms: _230  and  _232
REMARK   90  A    between atoms: _232  and  _233
REMARK   91  A    between atoms: _232  and  _235
REMARK   92  A    between atoms: _235  and  _236
REMARK   93  A    between atoms: _241  and  _243
REMARK   94  A    between atoms: _243  and  _244
REMARK   95  A    between atoms: _243  and  _246
REMARK   96  A    between atoms: _246  and  _247
REMARK   97  A    between atoms: _253  and  _255
REMARK   98  A    between atoms: _255  and  _256
REMARK   99  A    between atoms: _258  and  _260
REMARK  100  A    between atoms: _260  and  _261
REMARK  101  A    between atoms: _260  and  _263
REMARK  102  A    between atoms: _266  and  _268
REMARK  103  A    between atoms: _268  and  _269
REMARK  104  A    between atoms: _268  and  _271
REMARK  105  A    between atoms: _271  and  _272
REMARK  106  A    between atoms: _275  and  _277
REMARK  107  A    between atoms: _277  and  _278
REMARK  108  A    between atoms: _277  and  _280
REMARK  109  A    between atoms: _280  and  _281
REMARK  110  A    between atoms: _284  and  _286
REMARK  111  A    between atoms: _286  and  _287
REMARK  112  A    between atoms: _286  and  _289
REMARK  113  A    between atoms: _292  and  _294
REMARK  114  A    between atoms: _294  and  _295
REMARK  115  A    between atoms: _294  and  _297
REMARK  116  A    between atoms: _300  and  _302
REMARK  117  A    between atoms: _302  and  _303
REMARK  118  A    between atoms: _302  and  _305
REMARK  119  A    between atoms: _305  and  _306
REMARK  120  A    between atoms: _309  and  _311
REMARK  121  A    between atoms: _311  and  _312
REMARK  122  A    between atoms: _311  and  _314
REMARK  123  A    between atoms: _314  and  _315
REMARK  124  A    between atoms: _318  and  _320
REMARK  125  A    between atoms: _320  and  _321
REMARK  126  A    between atoms: _320  and  _323
REMARK  127  A    between atoms: _323  and  _324
REMARK  128  A    between atoms: _330  and  _332
REMARK  129  A    between atoms: _332  and  _333
REMARK  130  A    between atoms: _332  and  _335
REMARK  131  A    between atoms: _335  and  _336
REMARK  132  A    between atoms: _342  and  _344
REMARK  133  A    between atoms: _344  and  _345
REMARK  134  A    between atoms: _347  and  _349
REMARK  135  A    between atoms: _349  and  _350
REMARK  136  A    between atoms: _349  and  _352
REMARK  137  A    between atoms: _352  and  _353
REMARK  138  A    between atoms: _353  and  _354
REMARK  139  A    between atoms: _357  and  _359
REMARK  140  A    between atoms: _359  and  _360
REMARK  141  A    between atoms: _359  and  _362
REMARK  142  A    between atoms: _362  and  _363
REMARK  143  A    between atoms: _363  and  _364
REMARK  144  A    between atoms: _364  and  _365
REMARK  145  A    between atoms: _365  and  _366
REMARK  146  A    between atoms: _370  and  _372
REMARK  147  A    between atoms: _372  and  _373
REMARK  148  A    between atoms: _372  and  _375
REMARK  149  A    between atoms: _375  and  _376
REMARK  150  A    between atoms: _379  and  _381
REMARK  151  A    between atoms: _381  and  _382
REMARK  152  A    between atoms: _381  and  _384
REMARK  153  A    between atoms: _384  and  _385
REMARK  154  A    between atoms: _390  and  _391
REMARK  155  A    between atoms: _393  and  _395
REMARK  156  A    between atoms: _395  and  _396
REMARK  157  A    between atoms: _395  and  _398
REMARK  158  A    between atoms: _398  and  _399
REMARK  159  A    between atoms: _399  and  _400
REMARK  160  A    between atoms: _405  and  _407
REMARK  161  A    between atoms: _407  and  _408
REMARK  162  A    between atoms: _407  and  _410
REMARK  163  A    between atoms: _410  and  _411
REMARK  164  A    between atoms: _414  and  _416
REMARK  165  A    between atoms: _416  and  _417
REMARK  166  A    between atoms: _416  and  _419
REMARK  167  A    between atoms: _419  and  _420
REMARK  168  A    between atoms: _423  and  _425
REMARK  169  A    between atoms: _425  and  _426
REMARK  170  A    between atoms: _425  and  _428
REMARK  171  A    between atoms: _431  and  _433
REMARK  172  A    between atoms: _433  and  _434
REMARK  173  A    between atoms: _436  and  _438
REMARK  174  A    between atoms: _438  and  _439
REMARK  175  A    between atoms: _438  and  _441
REMARK  176  A    between atoms: _445  and  _446
REMARK  177  A    between atoms: _451  and  _453
REMARK  178  A    between atoms: _453  and  _454
REMARK  179  A    between atoms: _453  and  _456
REMARK  180  A    between atoms: _456  and  _457
REMARK  181  A    between atoms: _460  and  _462
REMARK  182  A    between atoms: _462  and  _463
REMARK  183  A    between atoms: _462  and  _465
REMARK  184  A    between atoms: _468  and  _470
REMARK  185  A    between atoms: _470  and  _471
REMARK  186  A    between atoms: _470  and  _473
REMARK  187  A    between atoms: _473  and  _474
REMARK  188  A    between atoms: _474  and  _475
REMARK  189  A    between atoms: _475  and  _476
REMARK  190  A    between atoms: _485  and  _487
REMARK  191  A    between atoms: _487  and  _488
REMARK  192  A    between atoms: _487  and  _490
REMARK  193  A    between atoms: _490  and  _491
REMARK  194  A    between atoms: _491  and  _492
REMARK  195  A    between atoms: _495  and  _497
REMARK  196  A    between atoms: _497  and  _498
REMARK  197  A    between atoms: _497  and  _500
REMARK  198  A    between atoms: _500  and  _501
REMARK  199  A    between atoms: _504  and  _506
REMARK  200  A    between atoms: _506  and  _507
REMARK  201  A    between atoms: _510  and  _512
REMARK  202  A    between atoms: _512  and  _513
REMARK  203  A    between atoms: _512  and  _515
REMARK  204  A    between atoms: _515  and  _516
REMARK  205  A    between atoms: _516  and  _517
REMARK  206  A    between atoms: _519  and  _521
REMARK  207  A    between atoms: _521  and  _522
REMARK  208  A    between atoms: _521  and  _524
REMARK  209  A    between atoms: _524  and  _525
REMARK  210  A    between atoms: _527  and  _529
REMARK  211  A    between atoms: _529  and  _530
REMARK  212  A    between atoms: _529  and  _532
REMARK  213  A    between atoms: _532  and  _533
REMARK  214  A    between atoms: _535  and  _537
REMARK  215  A    between atoms: _537  and  _538
REMARK  216  A    between atoms: _537  and  _540
REMARK  217  A    between atoms: _540  and  _541
REMARK  218  A    between atoms: _541  and  _542
REMARK  219  A    between atoms: _542  and  _543
REMARK  220  A    between atoms: _552  and  _554
REMARK  221  A    between atoms: _554  and  _555
REMARK  222  A    between atoms: _554  and  _557
REMARK  223  A    between atoms: _557  and  _558
REMARK  224  A    between atoms: _563  and  _565
REMARK  225  A    between atoms: _565  and  _566
REMARK  226  A    between atoms: _565  and  _568
REMARK  227  A    between atoms: _568  and  _569
REMARK  228  A    between atoms: _572  and  _574
REMARK  229  A    between atoms: _574  and  _575
REMARK  230  A    between atoms: _574  and  _577
REMARK  231  A    between atoms: _577  and  _578
REMARK  232  A    between atoms: _581  and  _583
REMARK  233  A    between atoms: _583  and  _584
REMARK  234  A    between atoms: _583  and  _586
REMARK  235  A    between atoms: _586  and  _587
REMARK                            x       y       z     vdW  Elec       q    Type
REMARK                         _______ _______ _______ _____ _____    ______ ____
ROOT
ATOM      1  O   HOH     1      10.505   9.289   3.463  0.00  0.00    +0.000 OA
ENDROOT
TORSDOF 0
REMARK  Name = ../refined-set-2016/3ioe/3ioe_pocket.pdb
REMARK  235 active torsions:
REMARK  status: ('A' for Active; 'I' for Inactive)
REMARK    1  A    between atoms: _1  and  _3
REMARK    2  A    between atoms: _3  and  _4
REMARK    3  A    between atoms: _3  and  _6
REMARK    4  A    between atoms: _10  and  _11
REMARK    5  A    between atoms: _16  and  _18
REMARK    6  A    between atoms: _18  and  _19
REMARK    7  A    between atoms: _18  and  _21
REMARK    8  A    between atoms: _21  and  _22
REMARK    9  A    between atoms: _25  and  _27
REMARK   10  A    between atoms: _27  and  _28
REMARK   11  A    between atoms: _27  and  _30
REMARK   12  A    between atoms: _30  and  _31
REMARK   13  A    between atoms: _31  and  _32
REMARK   14  A    between atoms: _34  and  _36
REMARK   15  A    between atoms: _36  and  _37
REMARK   16  A    between atoms: _39  and  _41
REMARK   17  A    between atoms: _41  and  _42
REMARK   18  A    between atoms: _45  and  _47
REMARK   19  A    between atoms: _47  and  _48
REMARK   20  A    between atoms: _47  and  _50
REMARK   21  A    between atoms: _50  and  _51
REMARK   22  A    between atoms: _54  and  _56
REMARK   23  A    between atoms: _56  and  _57
REMARK   24  A    between atoms: _56  and  _59
REMARK   25  A    between atoms: _59  and  _60
REMARK   26  A    between atoms: _65  and  _67
REMARK   27  A    between atoms: _67  and  _68
REMARK   28  A    between atoms: _67  and  _70
REMARK   29  A    between atoms: _70  and  _71
REMARK   30  A    between atoms: _71  and  _72
REMARK   31  A    between atoms: _75  and  _77
REMARK   32  A    between atoms: _77  and  _78
REMARK   33  A    between atoms: _80  and  _82
REMARK   34  A    between atoms: _82  and  _83
REMARK   35  A    between atoms: _82  and  _85
REMARK   36  A    between atoms: _85  and  _86
REMARK   37  A    between atoms: _91  and  _93
REMARK   38  A    between atoms: _93  and  _94
REMARK   39  A    between atoms: _93  and  _96
REMARK   40  A    between atoms: _96  and  _97
REMARK   41  A    between atoms: _100  and  _102
REMARK   42  A    between atoms: _102  and  _103
REMARK   43  A    between atoms: _106  and  _108
REMARK   44  A    between atoms: _108  and  _109
REMARK   45  A    between atoms: _108  and  _111
REMARK   46  A    between atoms: _111  and  _112
REMARK   47  A    between atoms: _115  and  _117
REMARK   48  A    between atoms: _117  and  _118
REMARK   49  A    between atoms: _117  and  _120
REMARK   50  A    between atoms: _123  and  _125
REMARK   51  A    between atoms: _125  and  _126
REMARK   52  A    between atoms: _125  and  _128
REMARK   53  A    between atoms: _128  and  _129
REMARK   54  A    between atoms: _131  and  _133
REMARK   55  A    between atoms: _133  and  _134
REMARK   56  A    between atoms: _133  and  _136
REMARK   57  A    between atoms: _136  and  _137
REMARK   58  A    between atoms: _140  and  _142
REMARK   59  A    between atoms: _142  and  _143
REMARK   60  A    between atoms: _142  and  _145
REMARK   61  A    between atoms: _145  and  _146
REMARK   62  A    between atoms: _152  and  _154
REMARK   63  A    between atoms: _154  and  _155
REMARK   64  A    between atoms: _154  and  _157
REMARK   65  A    between atoms: _160  and  _162
REMARK   66  A    between atoms: _162  and  _163
REMARK   67  A    between atoms: _162  and  _165
REMARK   68  A    between atoms: _165  and  _166
REMARK   69  A    between atoms: _172  and  _173
REMARK   70  A    between atoms: _178  and  _180
REMARK   71  A    between atoms: _180  and  _181
REMARK   72  A    between atoms: _180  and  _183
REMARK   73  A    between atoms: _183  and  _184
REMARK   74  A    between atoms: _184  and  _185
REMARK   75  A    between atoms: _190  and  _192
REMARK   76  A    between atoms: _192  and  _193
REMARK   77  A    between atoms: _192  and  _195
REMARK   78  A    between atoms: _195  and  _196
REMARK   79  A    between atoms: _202  and  _204
REMARK   80  A    between atoms: _204  and  _205
REMARK   81  A    between atoms: _204  and  _207
REMARK   82  A    between atoms: _207  and  _208
REMARK   83  A    between atoms: _213  and  _214
REMARK   84  A    between atoms: _216  and  _218
REMARK   85  A    between atoms: _218  and  _219
REMARK   86  A    between atoms: _218  and  _221
REMARK   87  A    between atoms: _221  and  _222
REMARK   88  A    between atoms: _227  and  _228
REMARK   89  A    between atoms: _230  and  _232
REMARK   90  A    between atoms: _232  and  _233
REMARK   91  A    between atoms: _232  and  _235
REMARK   92  A    between atoms: _235  and  _236
REMARK   93  A    between atoms: _241  and  _243
REMARK   94  A    between atoms: _243  and  _244
REMARK   95  A    between atoms: _243  and  _246
REMARK   96  A    between atoms: _246  and  _247
REMARK   97  A    between atoms: _253  and  _255
REMARK   98  A    between atoms: _255  and  _256
REMARK   99  A    between atoms: _258  and  _260
REMARK  100  A    between atoms: _260  and  _261
REMARK  101  A    between atoms: _260  and  _263
REMARK  102  A    between atoms: _266  and  _268
REMARK  103  A    between atoms: _268  and  _269
REMARK  104  A    between atoms: _268  and  _271
REMARK  105  A    between atoms: _271  and  _272
REMARK  106  A    between atoms: _275  and  _277
REMARK  107  A    between atoms: _277  and  _278
REMARK  108  A    between atoms: _277  and  _280
REMARK  109  A    between atoms: _280  and  _281
REMARK  110  A    between atoms: _284  and  _286
REMARK  111  A    between atoms: _286  and  _287
REMARK  112  A    between atoms: _286  and  _289
REMARK  113  A    between atoms: _292  and  _294
REMARK  114  A    between atoms: _294  and  _295
REMARK  115  A    between atoms: _294  and  _297
REMARK  116  A    between atoms: _300  and  _302
REMARK  117  A    between atoms: _302  and  _303
REMARK  118  A    between atoms: _302  and  _305
REMARK  119  A    between atoms: _305  and  _306
REMARK  120  A    between atoms: _309  and  _311
REMARK  121  A    between atoms: _311  and  _312
REMARK  122  A    between atoms: _311  and  _314
REMARK  123  A    between atoms: _314  and  _315
REMARK  124  A    between atoms: _318  and  _320
REMARK  125  A    between atoms: _320  and  _321
REMARK  126  A    between atoms: _320  and  _323
REMARK  127  A    between atoms: _323  and  _324
REMARK  128  A    between atoms: _330  and  _332
REMARK  129  A    between atoms: _332  and  _333
REMARK  130  A    between atoms: _332  and  _335
REMARK  131  A    between atoms: _335  and  _336
REMARK  132  A    between atoms: _342  and  _344
REMARK  133  A    between atoms: _344  and  _345
REMARK  134  A    between atoms: _347  and  _349
REMARK  135  A    between atoms: _349  and  _350
REMARK  136  A    between atoms: _349  and  _352
REMARK  137  A    between atoms: _352  and  _353
REMARK  138  A    between atoms: _353  and  _354
REMARK  139  A    between atoms: _357  and  _359
REMARK  140  A    between atoms: _359  and  _360
REMARK  141  A    between atoms: _359  and  _362
REMARK  142  A    between atoms: _362  and  _363
REMARK  143  A    between atoms: _363  and  _364
REMARK  144  A    between atoms: _364  and  _365
REMARK  145  A    between atoms: _365  and  _366
REMARK  146  A    between atoms: _370  and  _372
REMARK  147  A    between atoms: _372  and  _373
REMARK  148  A    between atoms: _372  and  _375
REMARK  149  A    between atoms: _375  and  _376
REMARK  150  A    between atoms: _379  and  _381
REMARK  151  A    between atoms: _381  and  _382
REMARK  152  A    between atoms: _381  and  _384
REMARK  153  A    between atoms: _384  and  _385
REMARK  154  A    between atoms: _390  and  _391
REMARK  155  A    between atoms: _393  and  _395
REMARK  156  A    between atoms: _395  and  _396
REMARK  157  A    between atoms: _395  and  _398
REMARK  158  A    between atoms: _398  and  _399
REMARK  159  A    between atoms: _399  and  _400
REMARK  160  A    between atoms: _405  and  _407
REMARK  161  A    between atoms: _407  and  _408
REMARK  162  A    between atoms: _407  and  _410
REMARK  163  A    between atoms: _410  and  _411
REMARK  164  A    between atoms: _414  and  _416
REMARK  165  A    between atoms: _416  and  _417
REMARK  166  A    between atoms: _416  and  _419
REMARK  167  A    between atoms: _419  and  _420
REMARK  168  A    between atoms: _423  and  _425
REMARK  169  A    between atoms: _425  and  _426
REMARK  170  A    between atoms: _425  and  _428
REMARK  171  A    between atoms: _431  and  _433
REMARK  172  A    between atoms: _433  and  _434
REMARK  173  A    between atoms: _436  and  _438
REMARK  174  A    between atoms: _438  and  _439
REMARK  175  A    between atoms: _438  and  _441
REMARK  176  A    between atoms: _445  and  _446
REMARK  177  A    between atoms: _451  and  _453
REMARK  178  A    between atoms: _453  and  _454
REMARK  179  A    between atoms: _453  and  _456
REMARK  180  A    between atoms: _456  and  _457
REMARK  181  A    between atoms: _460  and  _462
REMARK  182  A    between atoms: _462  and  _463
REMARK  183  A    between atoms: _462  and  _465
REMARK  184  A    between atoms: _468  and  _470
REMARK  185  A    between atoms: _470  and  _471
REMARK  186  A    between atoms: _470  and  _473
REMARK  187  A    between atoms: _473  and  _474
REMARK  188  A    between atoms: _474  and  _475
REMARK  189  A    between atoms: _475  and  _476
REMARK  190  A    between atoms: _485  and  _487
REMARK  191  A    between atoms: _487  and  _488
REMARK  192  A    between atoms: _487  and  _490
REMARK  193  A    between atoms: _490  and  _491
REMARK  194  A    between atoms: _491  and  _492
REMARK  195  A    between atoms: _495  and  _497
REMARK  196  A    between atoms: _497  and  _498
REMARK  197  A    between atoms: _497  and  _500
REMARK  198  A    between atoms: _500  and  _501
REMARK  199  A    between atoms: _504  and  _506
REMARK  200  A    between atoms: _506  and  _507
REMARK  201  A    between atoms: _510  and  _512
REMARK  202  A    between atoms: _512  and  _513
REMARK  203  A    between atoms: _512  and  _515
REMARK  204  A    between atoms: _515  and  _516
REMARK  205  A    between atoms: _516  and  _517
REMARK  206  A    between atoms: _519  and  _521
REMARK  207  A    between atoms: _521  and  _522
REMARK  208  A    between atoms: _521  and  _524
REMARK  209  A    between atoms: _524  and  _525
REMARK  210  A    between atoms: _527  and  _529
REMARK  211  A    between atoms: _529  and  _530
REMARK  212  A    between atoms: _529  and  _532
REMARK  213  A    between atoms: _532  and  _533
REMARK  214  A    between atoms: _535  and  _537
REMARK  215  A    between atoms: _537  and  _538
REMARK  216  A    between atoms: _537  and  _540
REMARK  217  A    between atoms: _540  and  _541
REMARK  218  A    between atoms: _541  and  _542
REMARK  219  A    between atoms: _542  and  _543
REMARK  220  A    between atoms: _552  and  _554
REMARK  221  A    between atoms: _554  and  _555
REMARK  222  A    between atoms: _554  and  _557
REMARK  223  A    between atoms: _557  and  _558
REMARK  224  A    between atoms: _563  and  _565
REMARK  225  A    between atoms: _565  and  _566
REMARK  226  A    between atoms: _565  and  _568
REMARK  227  A    between atoms: _568  and  _569
REMARK  228  A    between atoms: _572  and  _574
REMARK  229  A    between atoms: _574  and  _575
REMARK  230  A    between atoms: _574  and  _577
REMARK  231  A    between atoms: _577  and  _578
REMARK  232  A    between atoms: _581  and  _583
REMARK  233  A    between atoms: _583  and  _584
REMARK  234  A    between atoms: _583  and  _586
REMARK  235  A    between atoms: _586  and  _587
REMARK                            x       y       z     vdW  Elec       q    Type
REMARK                         _______ _______ _______ _____ _____    ______ ____
ROOT
ATOM      1  O   HOH     1      21.435   7.735   0.521  0.00  0.00    +0.000 OA
ENDROOT
TORSDOF 0
REMARK  Name = ../refined-set-2016/3ioe/3ioe_pocket.pdb
REMARK  235 active torsions:
REMARK  status: ('A' for Active; 'I' for Inactive)
REMARK    1  A    between atoms: _1  and  _3
REMARK    2  A    between atoms: _3  and  _4
REMARK    3  A    between atoms: _3  and  _6
REMARK    4  A    between atoms: _10  and  _11
REMARK    5  A    between atoms: _16  and  _18
REMARK    6  A    between atoms: _18  and  _19
REMARK    7  A    between atoms: _18  and  _21
REMARK    8  A    between atoms: _21  and  _22
REMARK    9  A    between atoms: _25  and  _27
REMARK   10  A    between atoms: _27  and  _28
REMARK   11  A    between atoms: _27  and  _30
REMARK   12  A    between atoms: _30  and  _31
REMARK   13  A    between atoms: _31  and  _32
REMARK   14  A    between atoms: _34  and  _36
REMARK   15  A    between atoms: _36  and  _37
REMARK   16  A    between atoms: _39  and  _41
REMARK   17  A    between atoms: _41  and  _42
REMARK   18  A    between atoms: _45  and  _47
REMARK   19  A    between atoms: _47  and  _48
REMARK   20  A    between atoms: _47  and  _50
REMARK   21  A    between atoms: _50  and  _51
REMARK   22  A    between atoms: _54  and  _56
REMARK   23  A    between atoms: _56  and  _57
REMARK   24  A    between atoms: _56  and  _59
REMARK   25  A    between atoms: _59  and  _60
REMARK   26  A    between atoms: _65  and  _67
REMARK   27  A    between atoms: _67  and  _68
REMARK   28  A    between atoms: _67  and  _70
REMARK   29  A    between atoms: _70  and  _71
REMARK   30  A    between atoms: _71  and  _72
REMARK   31  A    between atoms: _75  and  _77
REMARK   32  A    between atoms: _77  and  _78
REMARK   33  A    between atoms: _80  and  _82
REMARK   34  A    between atoms: _82  and  _83
REMARK   35  A    between atoms: _82  and  _85
REMARK   36  A    between atoms: _85  and  _86
REMARK   37  A    between atoms: _91  and  _93
REMARK   38  A    between atoms: _93  and  _94
REMARK   39  A    between atoms: _93  and  _96
REMARK   40  A    between atoms: _96  and  _97
REMARK   41  A    between atoms: _100  and  _102
REMARK   42  A    between atoms: _102  and  _103
REMARK   43  A    between atoms: _106  and  _108
REMARK   44  A    between atoms: _108  and  _109
REMARK   45  A    between atoms: _108  and  _111
REMARK   46  A    between atoms: _111  and  _112
REMARK   47  A    between atoms: _115  and  _117
REMARK   48  A    between atoms: _117  and  _118
REMARK   49  A    between atoms: _117  and  _120
REMARK   50  A    between atoms: _123  and  _125
REMARK   51  A    between atoms: _125  and  _126
REMARK   52  A    between atoms: _125  and  _128
REMARK   53  A    between atoms: _128  and  _129
REMARK   54  A    between atoms: _131  and  _133
REMARK   55  A    between atoms: _133  and  _134
REMARK   56  A    between atoms: _133  and  _136
REMARK   57  A    between atoms: _136  and  _137
REMARK   58  A    between atoms: _140  and  _142
REMARK   59  A    between atoms: _142  and  _143
REMARK   60  A    between atoms: _142  and  _145
REMARK   61  A    between atoms: _145  and  _146
REMARK   62  A    between atoms: _152  and  _154
REMARK   63  A    between atoms: _154  and  _155
REMARK   64  A    between atoms: _154  and  _157
REMARK   65  A    between atoms: _160  and  _162
REMARK   66  A    between atoms: _162  and  _163
REMARK   67  A    between atoms: _162  and  _165
REMARK   68  A    between atoms: _165  and  _166
REMARK   69  A    between atoms: _172  and  _173
REMARK   70  A    between atoms: _178  and  _180
REMARK   71  A    between atoms: _180  and  _181
REMARK   72  A    between atoms: _180  and  _183
REMARK   73  A    between atoms: _183  and  _184
REMARK   74  A    between atoms: _184  and  _185
REMARK   75  A    between atoms: _190  and  _192
REMARK   76  A    between atoms: _192  and  _193
REMARK   77  A    between atoms: _192  and  _195
REMARK   78  A    between atoms: _195  and  _196
REMARK   79  A    between atoms: _202  and  _204
REMARK   80  A    between atoms: _204  and  _205
REMARK   81  A    between atoms: _204  and  _207
REMARK   82  A    between atoms: _207  and  _208
REMARK   83  A    between atoms: _213  and  _214
REMARK   84  A    between atoms: _216  and  _218
REMARK   85  A    between atoms: _218  and  _219
REMARK   86  A    between atoms: _218  and  _221
REMARK   87  A    between atoms: _221  and  _222
REMARK   88  A    between atoms: _227  and  _228
REMARK   89  A    between atoms: _230  and  _232
REMARK   90  A    between atoms: _232  and  _233
REMARK   91  A    between atoms: _232  and  _235
REMARK   92  A    between atoms: _235  and  _236
REMARK   93  A    between atoms: _241  and  _243
REMARK   94  A    between atoms: _243  and  _244
REMARK   95  A    between atoms: _243  and  _246
REMARK   96  A    between atoms: _246  and  _247
REMARK   97  A    between atoms: _253  and  _255
REMARK   98  A    between atoms: _255  and  _256
REMARK   99  A    between atoms: _258  and  _260
REMARK  100  A    between atoms: _260  and  _261
REMARK  101  A    between atoms: _260  and  _263
REMARK  102  A    between atoms: _266  and  _268
REMARK  103  A    between atoms: _268  and  _269
REMARK  104  A    between atoms: _268  and  _271
REMARK  105  A    between atoms: _271  and  _272
REMARK  106  A    between atoms: _275  and  _277
REMARK  107  A    between atoms: _277  and  _278
REMARK  108  A    between atoms: _277  and  _280
REMARK  109  A    between atoms: _280  and  _281
REMARK  110  A    between atoms: _284  and  _286
REMARK  111  A    between atoms: _286  and  _287
REMARK  112  A    between atoms: _286  and  _289
REMARK  113  A    between atoms: _292  and  _294
REMARK  114  A    between atoms: _294  and  _295
REMARK  115  A    between atoms: _294  and  _297
REMARK  116  A    between atoms: _300  and  _302
REMARK  117  A    between atoms: _302  and  _303
REMARK  118  A    between atoms: _302  and  _305
REMARK  119  A    between atoms: _305  and  _306
REMARK  120  A    between atoms: _309  and  _311
REMARK  121  A    between atoms: _311  and  _312
REMARK  122  A    between atoms: _311  and  _314
REMARK  123  A    between atoms: _314  and  _315
REMARK  124  A    between atoms: _318  and  _320
REMARK  125  A    between atoms: _320  and  _321
REMARK  126  A    between atoms: _320  and  _323
REMARK  127  A    between atoms: _323  and  _324
REMARK  128  A    between atoms: _330  and  _332
REMARK  129  A    between atoms: _332  and  _333
REMARK  130  A    between atoms: _332  and  _335
REMARK  131  A    between atoms: _335  and  _336
REMARK  132  A    between atoms: _342  and  _344
REMARK  133  A    between atoms: _344  and  _345
REMARK  134  A    between atoms: _347  and  _349
REMARK  135  A    between atoms: _349  and  _350
REMARK  136  A    between atoms: _349  and  _352
REMARK  137  A    between atoms: _352  and  _353
REMARK  138  A    between atoms: _353  and  _354
REMARK  139  A    between atoms: _357  and  _359
REMARK  140  A    between atoms: _359  and  _360
REMARK  141  A    between atoms: _359  and  _362
REMARK  142  A    between atoms: _362  and  _363
REMARK  143  A    between atoms: _363  and  _364
REMARK  144  A    between atoms: _364  and  _365
REMARK  145  A    between atoms: _365  and  _366
REMARK  146  A    between atoms: _370  and  _372
REMARK  147  A    between atoms: _372  and  _373
REMARK  148  A    between atoms: _372  and  _375
REMARK  149  A    between atoms: _375  and  _376
REMARK  150  A    between atoms: _379  and  _381
REMARK  151  A    between atoms: _381  and  _382
REMARK  152  A    between atoms: _381  and  _384
REMARK  153  A    between atoms: _384  and  _385
REMARK  154  A    between atoms: _390  and  _391
REMARK  155  A    between atoms: _393  and  _395
REMARK  156  A    between atoms: _395  and  _396
REMARK  157  A    between atoms: _395  and  _398
REMARK  158  A    between atoms: _398  and  _399
REMARK  159  A    between atoms: _399  and  _400
REMARK  160  A    between atoms: _405  and  _407
REMARK  161  A    between atoms: _407  and  _408
REMARK  162  A    between atoms: _407  and  _410
REMARK  163  A    between atoms: _410  and  _411
REMARK  164  A    between atoms: _414  and  _416
REMARK  165  A    between atoms: _416  and  _417
REMARK  166  A    between atoms: _416  and  _419
REMARK  167  A    between atoms: _419  and  _420
REMARK  168  A    between atoms: _423  and  _425
REMARK  169  A    between atoms: _425  and  _426
REMARK  170  A    between atoms: _425  and  _428
REMARK  171  A    between atoms: _431  and  _433
REMARK  172  A    between atoms: _433  and  _434
REMARK  173  A    between atoms: _436  and  _438
REMARK  174  A    between atoms: _438  and  _439
REMARK  175  A    between atoms: _438  and  _441
REMARK  176  A    between atoms: _445  and  _446
REMARK  177  A    between atoms: _451  and  _453
REMARK  178  A    between atoms: _453  and  _454
REMARK  179  A    between atoms: _453  and  _456
REMARK  180  A    between atoms: _456  and  _457
REMARK  181  A    between atoms: _460  and  _462
REMARK  182  A    between atoms: _462  and  _463
REMARK  183  A    between atoms: _462  and  _465
REMARK  184  A    between atoms: _468  and  _470
REMARK  185  A    between atoms: _470  and  _471
REMARK  186  A    between atoms: _470  and  _473
REMARK  187  A    between atoms: _473  and  _474
REMARK  188  A    between atoms: _474  and  _475
REMARK  189  A    between atoms: _475  and  _476
REMARK  190  A    between atoms: _485  and  _487
REMARK  191  A    between atoms: _487  and  _488
REMARK  192  A    between atoms: _487  and  _490
REMARK  193  A    between atoms: _490  and  _491
REMARK  194  A    between atoms: _491  and  _492
REMARK  195  A    between atoms: _495  and  _497
REMARK  196  A    between atoms: _497  and  _498
REMARK  197  A    between atoms: _497  and  _500
REMARK  198  A    between atoms: _500  and  _501
REMARK  199  A    between atoms: _504  and  _506
REMARK  200  A    between atoms: _506  and  _507
REMARK  201  A    between atoms: _510  and  _512
REMARK  202  A    between atoms: _512  and  _513
REMARK  203  A    between atoms: _512  and  _515
REMARK  204  A    between atoms: _515  and  _516
REMARK  205  A    between atoms: _516  and  _517
REMARK  206  A    between atoms: _519  and  _521
REMARK  207  A    between atoms: _521  and  _522
REMARK  208  A    between atoms: _521  and  _524
REMARK  209  A    between atoms: _524  and  _525
REMARK  210  A    between atoms: _527  and  _529
REMARK  211  A    between atoms: _529  and  _530
REMARK  212  A    between atoms: _529  and  _532
REMARK  213  A    between atoms: _532  and  _533
REMARK  214  A    between atoms: _535  and  _537
REMARK  215  A    between atoms: _537  and  _538
REMARK  216  A    between atoms: _537  and  _540
REMARK  217  A    between atoms: _540  and  _541
REMARK  218  A    between atoms: _541  and  _542
REMARK  219  A    between atoms: _542  and  _543
REMARK  220  A    between atoms: _552  and  _554
REMARK  221  A    between atoms: _554  and  _555
REMARK  222  A    between atoms: _554  and  _557
REMARK  223  A    between atoms: _557  and  _558
REMARK  224  A    between atoms: _563  and  _565
REMARK  225  A    between atoms: _565  and  _566
REMARK  226  A    between atoms: _565  and  _568
REMARK  227  A    between atoms: _568  and  _569
REMARK  228  A    between atoms: _572  and  _574
REMARK  229  A    between atoms: _574  and  _575
REMARK  230  A    between atoms: _574  and  _577
REMARK  231  A    between atoms: _577  and  _578
REMARK  232  A    between atoms: _581  and  _583
REMARK  233  A    between atoms: _583  and  _584
REMARK  234  A    between atoms: _583  and  _586
REMARK  235  A    between atoms: _586  and  _587
REMARK                            x       y       z     vdW  Elec       q    Type
REMARK                         _______ _______ _______ _____ _____    ______ ____
ROOT
ATOM      1  O   HOH     1      21.178   8.781   7.113  0.00  0.00    +0.000 OA
ENDROOT
TORSDOF 0
REMARK  Name = ../refined-set-2016/3ioe/3ioe_pocket.pdb
REMARK  235 active torsions:
REMARK  status: ('A' for Active; 'I' for Inactive)
REMARK    1  A    between atoms: _1  and  _3
REMARK    2  A    between atoms: _3  and  _4
REMARK    3  A    between atoms: _3  and  _6
REMARK    4  A    between atoms: _10  and  _11
REMARK    5  A    between atoms: _16  and  _18
REMARK    6  A    between atoms: _18  and  _19
REMARK    7  A    between atoms: _18  and  _21
REMARK    8  A    between atoms: _21  and  _22
REMARK    9  A    between atoms: _25  and  _27
REMARK   10  A    between atoms: _27  and  _28
REMARK   11  A    between atoms: _27  and  _30
REMARK   12  A    between atoms: _30  and  _31
REMARK   13  A    between atoms: _31  and  _32
REMARK   14  A    between atoms: _34  and  _36
REMARK   15  A    between atoms: _36  and  _37
REMARK   16  A    between atoms: _39  and  _41
REMARK   17  A    between atoms: _41  and  _42
REMARK   18  A    between atoms: _45  and  _47
REMARK   19  A    between atoms: _47  and  _48
REMARK   20  A    between atoms: _47  and  _50
REMARK   21  A    between atoms: _50  and  _51
REMARK   22  A    between atoms: _54  and  _56
REMARK   23  A    between atoms: _56  and  _57
REMARK   24  A    between atoms: _56  and  _59
REMARK   25  A    between atoms: _59  and  _60
REMARK   26  A    between atoms: _65  and  _67
REMARK   27  A    between atoms: _67  and  _68
REMARK   28  A    between atoms: _67  and  _70
REMARK   29  A    between atoms: _70  and  _71
REMARK   30  A    between atoms: _71  and  _72
REMARK   31  A    between atoms: _75  and  _77
REMARK   32  A    between atoms: _77  and  _78
REMARK   33  A    between atoms: _80  and  _82
REMARK   34  A    between atoms: _82  and  _83
REMARK   35  A    between atoms: _82  and  _85
REMARK   36  A    between atoms: _85  and  _86
REMARK   37  A    between atoms: _91  and  _93
REMARK   38  A    between atoms: _93  and  _94
REMARK   39  A    between atoms: _93  and  _96
REMARK   40  A    between atoms: _96  and  _97
REMARK   41  A    between atoms: _100  and  _102
REMARK   42  A    between atoms: _102  and  _103
REMARK   43  A    between atoms: _106  and  _108
REMARK   44  A    between atoms: _108  and  _109
REMARK   45  A    between atoms: _108  and  _111
REMARK   46  A    between atoms: _111  and  _112
REMARK   47  A    between atoms: _115  and  _117
REMARK   48  A    between atoms: _117  and  _118
REMARK   49  A    between atoms: _117  and  _120
REMARK   50  A    between atoms: _123  and  _125
REMARK   51  A    between atoms: _125  and  _126
REMARK   52  A    between atoms: _125  and  _128
REMARK   53  A    between atoms: _128  and  _129
REMARK   54  A    between atoms: _131  and  _133
REMARK   55  A    between atoms: _133  and  _134
REMARK   56  A    between atoms: _133  and  _136
REMARK   57  A    between atoms: _136  and  _137
REMARK   58  A    between atoms: _140  and  _142
REMARK   59  A    between atoms: _142  and  _143
REMARK   60  A    between atoms: _142  and  _145
REMARK   61  A    between atoms: _145  and  _146
REMARK   62  A    between atoms: _152  and  _154
REMARK   63  A    between atoms: _154  and  _155
REMARK   64  A    between atoms: _154  and  _157
REMARK   65  A    between atoms: _160  and  _162
REMARK   66  A    between atoms: _162  and  _163
REMARK   67  A    between atoms: _162  and  _165
REMARK   68  A    between atoms: _165  and  _166
REMARK   69  A    between atoms: _172  and  _173
REMARK   70  A    between atoms: _178  and  _180
REMARK   71  A    between atoms: _180  and  _181
REMARK   72  A    between atoms: _180  and  _183
REMARK   73  A    between atoms: _183  and  _184
REMARK   74  A    between atoms: _184  and  _185
REMARK   75  A    between atoms: _190  and  _192
REMARK   76  A    between atoms: _192  and  _193
REMARK   77  A    between atoms: _192  and  _195
REMARK   78  A    between atoms: _195  and  _196
REMARK   79  A    between atoms: _202  and  _204
REMARK   80  A    between atoms: _204  and  _205
REMARK   81  A    between atoms: _204  and  _207
REMARK   82  A    between atoms: _207  and  _208
REMARK   83  A    between atoms: _213  and  _214
REMARK   84  A    between atoms: _216  and  _218
REMARK   85  A    between atoms: _218  and  _219
REMARK   86  A    between atoms: _218  and  _221
REMARK   87  A    between atoms: _221  and  _222
REMARK   88  A    between atoms: _227  and  _228
REMARK   89  A    between atoms: _230  and  _232
REMARK   90  A    between atoms: _232  and  _233
REMARK   91  A    between atoms: _232  and  _235
REMARK   92  A    between atoms: _235  and  _236
REMARK   93  A    between atoms: _241  and  _243
REMARK   94  A    between atoms: _243  and  _244
REMARK   95  A    between atoms: _243  and  _246
REMARK   96  A    between atoms: _246  and  _247
REMARK   97  A    between atoms: _253  and  _255
REMARK   98  A    between atoms: _255  and  _256
REMARK   99  A    between atoms: _258  and  _260
REMARK  100  A    between atoms: _260  and  _261
REMARK  101  A    between atoms: _260  and  _263
REMARK  102  A    between atoms: _266  and  _268
REMARK  103  A    between atoms: _268  and  _269
REMARK  104  A    between atoms: _268  and  _271
REMARK  105  A    between atoms: _271  and  _272
REMARK  106  A    between atoms: _275  and  _277
REMARK  107  A    between atoms: _277  and  _278
REMARK  108  A    between atoms: _277  and  _280
REMARK  109  A    between atoms: _280  and  _281
REMARK  110  A    between atoms: _284  and  _286
REMARK  111  A    between atoms: _286  and  _287
REMARK  112  A    between atoms: _286  and  _289
REMARK  113  A    between atoms: _292  and  _294
REMARK  114  A    between atoms: _294  and  _295
REMARK  115  A    between atoms: _294  and  _297
REMARK  116  A    between atoms: _300  and  _302
REMARK  117  A    between atoms: _302  and  _303
REMARK  118  A    between atoms: _302  and  _305
REMARK  119  A    between atoms: _305  and  _306
REMARK  120  A    between atoms: _309  and  _311
REMARK  121  A    between atoms: _311  and  _312
REMARK  122  A    between atoms: _311  and  _314
REMARK  123  A    between atoms: _314  and  _315
REMARK  124  A    between atoms: _318  and  _320
REMARK  125  A    between atoms: _320  and  _321
REMARK  126  A    between atoms: _320  and  _323
REMARK  127  A    between atoms: _323  and  _324
REMARK  128  A    between atoms: _330  and  _332
REMARK  129  A    between atoms: _332  and  _333
REMARK  130  A    between atoms: _332  and  _335
REMARK  131  A    between atoms: _335  and  _336
REMARK  132  A    between atoms: _342  and  _344
REMARK  133  A    between atoms: _344  and  _345
REMARK  134  A    between atoms: _347  and  _349
REMARK  135  A    between atoms: _349  and  _350
REMARK  136  A    between atoms: _349  and  _352
REMARK  137  A    between atoms: _352  and  _353
REMARK  138  A    between atoms: _353  and  _354
REMARK  139  A    between atoms: _357  and  _359
REMARK  140  A    between atoms: _359  and  _360
REMARK  141  A    between atoms: _359  and  _362
REMARK  142  A    between atoms: _362  and  _363
REMARK  143  A    between atoms: _363  and  _364
REMARK  144  A    between atoms: _364  and  _365
REMARK  145  A    between atoms: _365  and  _366
REMARK  146  A    between atoms: _370  and  _372
REMARK  147  A    between atoms: _372  and  _373
REMARK  148  A    between atoms: _372  and  _375
REMARK  149  A    between atoms: _375  and  _376
REMARK  150  A    between atoms: _379  and  _381
REMARK  151  A    between atoms: _381  and  _382
REMARK  152  A    between atoms: _381  and  _384
REMARK  153  A    between atoms: _384  and  _385
REMARK  154  A    between atoms: _390  and  _391
REMARK  155  A    between atoms: _393  and  _395
REMARK  156  A    between atoms: _395  and  _396
REMARK  157  A    between atoms: _395  and  _398
REMARK  158  A    between atoms: _398  and  _399
REMARK  159  A    between atoms: _399  and  _400
REMARK  160  A    between atoms: _405  and  _407
REMARK  161  A    between atoms: _407  and  _408
REMARK  162  A    between atoms: _407  and  _410
REMARK  163  A    between atoms: _410  and  _411
REMARK  164  A    between atoms: _414  and  _416
REMARK  165  A    between atoms: _416  and  _417
REMARK  166  A    between atoms: _416  and  _419
REMARK  167  A    between atoms: _419  and  _420
REMARK  168  A    between atoms: _423  and  _425
REMARK  169  A    between atoms: _425  and  _426
REMARK  170  A    between atoms: _425  and  _428
REMARK  171  A    between atoms: _431  and  _433
REMARK  172  A    between atoms: _433  and  _434
REMARK  173  A    between atoms: _436  and  _438
REMARK  174  A    between atoms: _438  and  _439
REMARK  175  A    between atoms: _438  and  _441
REMARK  176  A    between atoms: _445  and  _446
REMARK  177  A    between atoms: _451  and  _453
REMARK  178  A    between atoms: _453  and  _454
REMARK  179  A    between atoms: _453  and  _456
REMARK  180  A    between atoms: _456  and  _457
REMARK  181  A    between atoms: _460  and  _462
REMARK  182  A    between atoms: _462  and  _463
REMARK  183  A    between atoms: _462  and  _465
REMARK  184  A    between atoms: _468  and  _470
REMARK  185  A    between atoms: _470  and  _471
REMARK  186  A    between atoms: _470  and  _473
REMARK  187  A    between atoms: _473  and  _474
REMARK  188  A    between atoms: _474  and  _475
REMARK  189  A    between atoms: _475  and  _476
REMARK  190  A    between atoms: _485  and  _487
REMARK  191  A    between atoms: _487  and  _488
REMARK  192  A    between atoms: _487  and  _490
REMARK  193  A    between atoms: _490  and  _491
REMARK  194  A    between atoms: _491  and  _492
REMARK  195  A    between atoms: _495  and  _497
REMARK  196  A    between atoms: _497  and  _498
REMARK  197  A    between atoms: _497  and  _500
REMARK  198  A    between atoms: _500  and  _501
REMARK  199  A    between atoms: _504  and  _506
REMARK  200  A    between atoms: _506  and  _507
REMARK  201  A    between atoms: _510  and  _512
REMARK  202  A    between atoms: _512  and  _513
REMARK  203  A    between atoms: _512  and  _515
REMARK  204  A    between atoms: _515  and  _516
REMARK  205  A    between atoms: _516  and  _517
REMARK  206  A    between atoms: _519  and  _521
REMARK  207  A    between atoms: _521  and  _522
REMARK  208  A    between atoms: _521  and  _524
REMARK  209  A    between atoms: _524  and  _525
REMARK  210  A    between atoms: _527  and  _529
REMARK  211  A    between atoms: _529  and  _530
REMARK  212  A    between atoms: _529  and  _532
REMARK  213  A    between atoms: _532  and  _533
REMARK  214  A    between atoms: _535  and  _537
REMARK  215  A    between atoms: _537  and  _538
REMARK  216  A    between atoms: _537  and  _540
REMARK  217  A    between atoms: _540  and  _541
REMARK  218  A    between atoms: _541  and  _542
REMARK  219  A    between atoms: _542  and  _543
REMARK  220  A    between atoms: _552  and  _554
REMARK  221  A    between atoms: _554  and  _555
REMARK  222  A    between atoms: _554  and  _557
REMARK  223  A    between atoms: _557  and  _558
REMARK  224  A    between atoms: _563  and  _565
REMARK  225  A    between atoms: _565  and  _566
REMARK  226  A    between atoms: _565  and  _568
REMARK  227  A    between atoms: _568  and  _569
REMARK  228  A    between atoms: _572  and  _574
REMARK  229  A    between atoms: _574  and  _575
REMARK  230  A    between atoms: _574  and  _577
REMARK  231  A    between atoms: _577  and  _578
REMARK  232  A    between atoms: _581  and  _583
REMARK  233  A    between atoms: _583  and  _584
REMARK  234  A    between atoms: _583  and  _586
REMARK  235  A    between atoms: _586  and  _587
REMARK                            x       y       z     vdW  Elec       q    Type
REMARK                         _______ _______ _______ _____ _____    ______ ____
ROOT
ATOM      1  O   HOH     1      22.842   9.821  -6.359  0.00  0.00    +0.000 OA
ENDROOT
TORSDOF 0
REMARK  Name = ../refined-set-2016/3ioe/3ioe_pocket.pdb
REMARK  235 active torsions:
REMARK  status: ('A' for Active; 'I' for Inactive)
REMARK    1  A    between atoms: _1  and  _3
REMARK    2  A    between atoms: _3  and  _4
REMARK    3  A    between atoms: _3  and  _6
REMARK    4  A    between atoms: _10  and  _11
REMARK    5  A    between atoms: _16  and  _18
REMARK    6  A    between atoms: _18  and  _19
REMARK    7  A    between atoms: _18  and  _21
REMARK    8  A    between atoms: _21  and  _22
REMARK    9  A    between atoms: _25  and  _27
REMARK   10  A    between atoms: _27  and  _28
REMARK   11  A    between atoms: _27  and  _30
REMARK   12  A    between atoms: _30  and  _31
REMARK   13  A    between atoms: _31  and  _32
REMARK   14  A    between atoms: _34  and  _36
REMARK   15  A    between atoms: _36  and  _37
REMARK   16  A    between atoms: _39  and  _41
REMARK   17  A    between atoms: _41  and  _42
REMARK   18  A    between atoms: _45  and  _47
REMARK   19  A    between atoms: _47  and  _48
REMARK   20  A    between atoms: _47  and  _50
REMARK   21  A    between atoms: _50  and  _51
REMARK   22  A    between atoms: _54  and  _56
REMARK   23  A    between atoms: _56  and  _57
REMARK   24  A    between atoms: _56  and  _59
REMARK   25  A    between atoms: _59  and  _60
REMARK   26  A    between atoms: _65  and  _67
REMARK   27  A    between atoms: _67  and  _68
REMARK   28  A    between atoms: _67  and  _70
REMARK   29  A    between atoms: _70  and  _71
REMARK   30  A    between atoms: _71  and  _72
REMARK   31  A    between atoms: _75  and  _77
REMARK   32  A    between atoms: _77  and  _78
REMARK   33  A    between atoms: _80  and  _82
REMARK   34  A    between atoms: _82  and  _83
REMARK   35  A    between atoms: _82  and  _85
REMARK   36  A    between atoms: _85  and  _86
REMARK   37  A    between atoms: _91  and  _93
REMARK   38  A    between atoms: _93  and  _94
REMARK   39  A    between atoms: _93  and  _96
REMARK   40  A    between atoms: _96  and  _97
REMARK   41  A    between atoms: _100  and  _102
REMARK   42  A    between atoms: _102  and  _103
REMARK   43  A    between atoms: _106  and  _108
REMARK   44  A    between atoms: _108  and  _109
REMARK   45  A    between atoms: _108  and  _111
REMARK   46  A    between atoms: _111  and  _112
REMARK   47  A    between atoms: _115  and  _117
REMARK   48  A    between atoms: _117  and  _118
REMARK   49  A    between atoms: _117  and  _120
REMARK   50  A    between atoms: _123  and  _125
REMARK   51  A    between atoms: _125  and  _126
REMARK   52  A    between atoms: _125  and  _128
REMARK   53  A    between atoms: _128  and  _129
REMARK   54  A    between atoms: _131  and  _133
REMARK   55  A    between atoms: _133  and  _134
REMARK   56  A    between atoms: _133  and  _136
REMARK   57  A    between atoms: _136  and  _137
REMARK   58  A    between atoms: _140  and  _142
REMARK   59  A    between atoms: _142  and  _143
REMARK   60  A    between atoms: _142  and  _145
REMARK   61  A    between atoms: _145  and  _146
REMARK   62  A    between atoms: _152  and  _154
REMARK   63  A    between atoms: _154  and  _155
REMARK   64  A    between atoms: _154  and  _157
REMARK   65  A    between atoms: _160  and  _162
REMARK   66  A    between atoms: _162  and  _163
REMARK   67  A    between atoms: _162  and  _165
REMARK   68  A    between atoms: _165  and  _166
REMARK   69  A    between atoms: _172  and  _173
REMARK   70  A    between atoms: _178  and  _180
REMARK   71  A    between atoms: _180  and  _181
REMARK   72  A    between atoms: _180  and  _183
REMARK   73  A    between atoms: _183  and  _184
REMARK   74  A    between atoms: _184  and  _185
REMARK   75  A    between atoms: _190  and  _192
REMARK   76  A    between atoms: _192  and  _193
REMARK   77  A    between atoms: _192  and  _195
REMARK   78  A    between atoms: _195  and  _196
REMARK   79  A    between atoms: _202  and  _204
REMARK   80  A    between atoms: _204  and  _205
REMARK   81  A    between atoms: _204  and  _207
REMARK   82  A    between atoms: _207  and  _208
REMARK   83  A    between atoms: _213  and  _214
REMARK   84  A    between atoms: _216  and  _218
REMARK   85  A    between atoms: _218  and  _219
REMARK   86  A    between atoms: _218  and  _221
REMARK   87  A    between atoms: _221  and  _222
REMARK   88  A    between atoms: _227  and  _228
REMARK   89  A    between atoms: _230  and  _232
REMARK   90  A    between atoms: _232  and  _233
REMARK   91  A    between atoms: _232  and  _235
REMARK   92  A    between atoms: _235  and  _236
REMARK   93  A    between atoms: _241  and  _243
REMARK   94  A    between atoms: _243  and  _244
REMARK   95  A    between atoms: _243  and  _246
REMARK   96  A    between atoms: _246  and  _247
REMARK   97  A    between atoms: _253  and  _255
REMARK   98  A    between atoms: _255  and  _256
REMARK   99  A    between atoms: _258  and  _260
REMARK  100  A    between atoms: _260  and  _261
REMARK  101  A    between atoms: _260  and  _263
REMARK  102  A    between atoms: _266  and  _268
REMARK  103  A    between atoms: _268  and  _269
REMARK  104  A    between atoms: _268  and  _271
REMARK  105  A    between atoms: _271  and  _272
REMARK  106  A    between atoms: _275  and  _277
REMARK  107  A    between atoms: _277  and  _278
REMARK  108  A    between atoms: _277  and  _280
REMARK  109  A    between atoms: _280  and  _281
REMARK  110  A    between atoms: _284  and  _286
REMARK  111  A    between atoms: _286  and  _287
REMARK  112  A    between atoms: _286  and  _289
REMARK  113  A    between atoms: _292  and  _294
REMARK  114  A    between atoms: _294  and  _295
REMARK  115  A    between atoms: _294  and  _297
REMARK  116  A    between atoms: _300  and  _302
REMARK  117  A    between atoms: _302  and  _303
REMARK  118  A    between atoms: _302  and  _305
REMARK  119  A    between atoms: _305  and  _306
REMARK  120  A    between atoms: _309  and  _311
REMARK  121  A    between atoms: _311  and  _312
REMARK  122  A    between atoms: _311  and  _314
REMARK  123  A    between atoms: _314  and  _315
REMARK  124  A    between atoms: _318  and  _320
REMARK  125  A    between atoms: _320  and  _321
REMARK  126  A    between atoms: _320  and  _323
REMARK  127  A    between atoms: _323  and  _324
REMARK  128  A    between atoms: _330  and  _332
REMARK  129  A    between atoms: _332  and  _333
REMARK  130  A    between atoms: _332  and  _335
REMARK  131  A    between atoms: _335  and  _336
REMARK  132  A    between atoms: _342  and  _344
REMARK  133  A    between atoms: _344  and  _345
REMARK  134  A    between atoms: _347  and  _349
REMARK  135  A    between atoms: _349  and  _350
REMARK  136  A    between atoms: _349  and  _352
REMARK  137  A    between atoms: _352  and  _353
REMARK  138  A    between atoms: _353  and  _354
REMARK  139  A    between atoms: _357  and  _359
REMARK  140  A    between atoms: _359  and  _360
REMARK  141  A    between atoms: _359  and  _362
REMARK  142  A    between atoms: _362  and  _363
REMARK  143  A    between atoms: _363  and  _364
REMARK  144  A    between atoms: _364  and  _365
REMARK  145  A    between atoms: _365  and  _366
REMARK  146  A    between atoms: _370  and  _372
REMARK  147  A    between atoms: _372  and  _373
REMARK  148  A    between atoms: _372  and  _375
REMARK  149  A    between atoms: _375  and  _376
REMARK  150  A    between atoms: _379  and  _381
REMARK  151  A    between atoms: _381  and  _382
REMARK  152  A    between atoms: _381  and  _384
REMARK  153  A    between atoms: _384  and  _385
REMARK  154  A    between atoms: _390  and  _391
REMARK  155  A    between atoms: _393  and  _395
REMARK  156  A    between atoms: _395  and  _396
REMARK  157  A    between atoms: _395  and  _398
REMARK  158  A    between atoms: _398  and  _399
REMARK  159  A    between atoms: _399  and  _400
REMARK  160  A    between atoms: _405  and  _407
REMARK  161  A    between atoms: _407  and  _408
REMARK  162  A    between atoms: _407  and  _410
REMARK  163  A    between atoms: _410  and  _411
REMARK  164  A    between atoms: _414  and  _416
REMARK  165  A    between atoms: _416  and  _417
REMARK  166  A    between atoms: _416  and  _419
REMARK  167  A    between atoms: _419  and  _420
REMARK  168  A    between atoms: _423  and  _425
REMARK  169  A    between atoms: _425  and  _426
REMARK  170  A    between atoms: _425  and  _428
REMARK  171  A    between atoms: _431  and  _433
REMARK  172  A    between atoms: _433  and  _434
REMARK  173  A    between atoms: _436  and  _438
REMARK  174  A    between atoms: _438  and  _439
REMARK  175  A    between atoms: _438  and  _441
REMARK  176  A    between atoms: _445  and  _446
REMARK  177  A    between atoms: _451  and  _453
REMARK  178  A    between atoms: _453  and  _454
REMARK  179  A    between atoms: _453  and  _456
REMARK  180  A    between atoms: _456  and  _457
REMARK  181  A    between atoms: _460  and  _462
REMARK  182  A    between atoms: _462  and  _463
REMARK  183  A    between atoms: _462  and  _465
REMARK  184  A    between atoms: _468  and  _470
REMARK  185  A    between atoms: _470  and  _471
REMARK  186  A    between atoms: _470  and  _473
REMARK  187  A    between atoms: _473  and  _474
REMARK  188  A    between atoms: _474  and  _475
REMARK  189  A    between atoms: _475  and  _476
REMARK  190  A    between atoms: _485  and  _487
REMARK  191  A    between atoms: _487  and  _488
REMARK  192  A    between atoms: _487  and  _490
REMARK  193  A    between atoms: _490  and  _491
REMARK  194  A    between atoms: _491  and  _492
REMARK  195  A    between atoms: _495  and  _497
REMARK  196  A    between atoms: _497  and  _498
REMARK  197  A    between atoms: _497  and  _500
REMARK  198  A    between atoms: _500  and  _501
REMARK  199  A    between atoms: _504  and  _506
REMARK  200  A    between atoms: _506  and  _507
REMARK  201  A    between atoms: _510  and  _512
REMARK  202  A    between atoms: _512  and  _513
REMARK  203  A    between atoms: _512  and  _515
REMARK  204  A    between atoms: _515  and  _516
REMARK  205  A    between atoms: _516  and  _517
REMARK  206  A    between atoms: _519  and  _521
REMARK  207  A    between atoms: _521  and  _522
REMARK  208  A    between atoms: _521  and  _524
REMARK  209  A    between atoms: _524  and  _525
REMARK  210  A    between atoms: _527  and  _529
REMARK  211  A    between atoms: _529  and  _530
REMARK  212  A    between atoms: _529  and  _532
REMARK  213  A    between atoms: _532  and  _533
REMARK  214  A    between atoms: _535  and  _537
REMARK  215  A    between atoms: _537  and  _538
REMARK  216  A    between atoms: _537  and  _540
REMARK  217  A    between atoms: _540  and  _541
REMARK  218  A    between atoms: _541  and  _542
REMARK  219  A    between atoms: _542  and  _543
REMARK  220  A    between atoms: _552  and  _554
REMARK  221  A    between atoms: _554  and  _555
REMARK  222  A    between atoms: _554  and  _557
REMARK  223  A    between atoms: _557  and  _558
REMARK  224  A    between atoms: _563  and  _565
REMARK  225  A    between atoms: _565  and  _566
REMARK  226  A    between atoms: _565  and  _568
REMARK  227  A    between atoms: _568  and  _569
REMARK  228  A    between atoms: _572  and  _574
REMARK  229  A    between atoms: _574  and  _575
REMARK  230  A    between atoms: _574  and  _577
REMARK  231  A    between atoms: _577  and  _578
REMARK  232  A    between atoms: _581  and  _583
REMARK  233  A    between atoms: _583  and  _584
REMARK  234  A    between atoms: _583  and  _586
REMARK  235  A    between atoms: _586  and  _587
REMARK                            x       y       z     vdW  Elec       q    Type
REMARK                         _______ _______ _______ _____ _____    ______ ____
ROOT
ATOM      1  O   HOH     1      22.894   8.081  -3.790  0.00  0.00    +0.000 OA
ENDROOT
TORSDOF 0
REMARK  Name = ../refined-set-2016/3ioe/3ioe_pocket.pdb
REMARK  235 active torsions:
REMARK  status: ('A' for Active; 'I' for Inactive)
REMARK    1  A    between atoms: _1  and  _3
REMARK    2  A    between atoms: _3  and  _4
REMARK    3  A    between atoms: _3  and  _6
REMARK    4  A    between atoms: _10  and  _11
REMARK    5  A    between atoms: _16  and  _18
REMARK    6  A    between atoms: _18  and  _19
REMARK    7  A    between atoms: _18  and  _21
REMARK    8  A    between atoms: _21  and  _22
REMARK    9  A    between atoms: _25  and  _27
REMARK   10  A    between atoms: _27  and  _28
REMARK   11  A    between atoms: _27  and  _30
REMARK   12  A    between atoms: _30  and  _31
REMARK   13  A    between atoms: _31  and  _32
REMARK   14  A    between atoms: _34  and  _36
REMARK   15  A    between atoms: _36  and  _37
REMARK   16  A    between atoms: _39  and  _41
REMARK   17  A    between atoms: _41  and  _42
REMARK   18  A    between atoms: _45  and  _47
REMARK   19  A    between atoms: _47  and  _48
REMARK   20  A    between atoms: _47  and  _50
REMARK   21  A    between atoms: _50  and  _51
REMARK   22  A    between atoms: _54  and  _56
REMARK   23  A    between atoms: _56  and  _57
REMARK   24  A    between atoms: _56  and  _59
REMARK   25  A    between atoms: _59  and  _60
REMARK   26  A    between atoms: _65  and  _67
REMARK   27  A    between atoms: _67  and  _68
REMARK   28  A    between atoms: _67  and  _70
REMARK   29  A    between atoms: _70  and  _71
REMARK   30  A    between atoms: _71  and  _72
REMARK   31  A    between atoms: _75  and  _77
REMARK   32  A    between atoms: _77  and  _78
REMARK   33  A    between atoms: _80  and  _82
REMARK   34  A    between atoms: _82  and  _83
REMARK   35  A    between atoms: _82  and  _85
REMARK   36  A    between atoms: _85  and  _86
REMARK   37  A    between atoms: _91  and  _93
REMARK   38  A    between atoms: _93  and  _94
REMARK   39  A    between atoms: _93  and  _96
REMARK   40  A    between atoms: _96  and  _97
REMARK   41  A    between atoms: _100  and  _102
REMARK   42  A    between atoms: _102  and  _103
REMARK   43  A    between atoms: _106  and  _108
REMARK   44  A    between atoms: _108  and  _109
REMARK   45  A    between atoms: _108  and  _111
REMARK   46  A    between atoms: _111  and  _112
REMARK   47  A    between atoms: _115  and  _117
REMARK   48  A    between atoms: _117  and  _118
REMARK   49  A    between atoms: _117  and  _120
REMARK   50  A    between atoms: _123  and  _125
REMARK   51  A    between atoms: _125  and  _126
REMARK   52  A    between atoms: _125  and  _128
REMARK   53  A    between atoms: _128  and  _129
REMARK   54  A    between atoms: _131  and  _133
REMARK   55  A    between atoms: _133  and  _134
REMARK   56  A    between atoms: _133  and  _136
REMARK   57  A    between atoms: _136  and  _137
REMARK   58  A    between atoms: _140  and  _142
REMARK   59  A    between atoms: _142  and  _143
REMARK   60  A    between atoms: _142  and  _145
REMARK   61  A    between atoms: _145  and  _146
REMARK   62  A    between atoms: _152  and  _154
REMARK   63  A    between atoms: _154  and  _155
REMARK   64  A    between atoms: _154  and  _157
REMARK   65  A    between atoms: _160  and  _162
REMARK   66  A    between atoms: _162  and  _163
REMARK   67  A    between atoms: _162  and  _165
REMARK   68  A    between atoms: _165  and  _166
REMARK   69  A    between atoms: _172  and  _173
REMARK   70  A    between atoms: _178  and  _180
REMARK   71  A    between atoms: _180  and  _181
REMARK   72  A    between atoms: _180  and  _183
REMARK   73  A    between atoms: _183  and  _184
REMARK   74  A    between atoms: _184  and  _185
REMARK   75  A    between atoms: _190  and  _192
REMARK   76  A    between atoms: _192  and  _193
REMARK   77  A    between atoms: _192  and  _195
REMARK   78  A    between atoms: _195  and  _196
REMARK   79  A    between atoms: _202  and  _204
REMARK   80  A    between atoms: _204  and  _205
REMARK   81  A    between atoms: _204  and  _207
REMARK   82  A    between atoms: _207  and  _208
REMARK   83  A    between atoms: _213  and  _214
REMARK   84  A    between atoms: _216  and  _218
REMARK   85  A    between atoms: _218  and  _219
REMARK   86  A    between atoms: _218  and  _221
REMARK   87  A    between atoms: _221  and  _222
REMARK   88  A    between atoms: _227  and  _228
REMARK   89  A    between atoms: _230  and  _232
REMARK   90  A    between atoms: _232  and  _233
REMARK   91  A    between atoms: _232  and  _235
REMARK   92  A    between atoms: _235  and  _236
REMARK   93  A    between atoms: _241  and  _243
REMARK   94  A    between atoms: _243  and  _244
REMARK   95  A    between atoms: _243  and  _246
REMARK   96  A    between atoms: _246  and  _247
REMARK   97  A    between atoms: _253  and  _255
REMARK   98  A    between atoms: _255  and  _256
REMARK   99  A    between atoms: _258  and  _260
REMARK  100  A    between atoms: _260  and  _261
REMARK  101  A    between atoms: _260  and  _263
REMARK  102  A    between atoms: _266  and  _268
REMARK  103  A    between atoms: _268  and  _269
REMARK  104  A    between atoms: _268  and  _271
REMARK  105  A    between atoms: _271  and  _272
REMARK  106  A    between atoms: _275  and  _277
REMARK  107  A    between atoms: _277  and  _278
REMARK  108  A    between atoms: _277  and  _280
REMARK  109  A    between atoms: _280  and  _281
REMARK  110  A    between atoms: _284  and  _286
REMARK  111  A    between atoms: _286  and  _287
REMARK  112  A    between atoms: _286  and  _289
REMARK  113  A    between atoms: _292  and  _294
REMARK  114  A    between atoms: _294  and  _295
REMARK  115  A    between atoms: _294  and  _297
REMARK  116  A    between atoms: _300  and  _302
REMARK  117  A    between atoms: _302  and  _303
REMARK  118  A    between atoms: _302  and  _305
REMARK  119  A    between atoms: _305  and  _306
REMARK  120  A    between atoms: _309  and  _311
REMARK  121  A    between atoms: _311  and  _312
REMARK  122  A    between atoms: _311  and  _314
REMARK  123  A    between atoms: _314  and  _315
REMARK  124  A    between atoms: _318  and  _320
REMARK  125  A    between atoms: _320  and  _321
REMARK  126  A    between atoms: _320  and  _323
REMARK  127  A    between atoms: _323  and  _324
REMARK  128  A    between atoms: _330  and  _332
REMARK  129  A    between atoms: _332  and  _333
REMARK  130  A    between atoms: _332  and  _335
REMARK  131  A    between atoms: _335  and  _336
REMARK  132  A    between atoms: _342  and  _344
REMARK  133  A    between atoms: _344  and  _345
REMARK  134  A    between atoms: _347  and  _349
REMARK  135  A    between atoms: _349  and  _350
REMARK  136  A    between atoms: _349  and  _352
REMARK  137  A    between atoms: _352  and  _353
REMARK  138  A    between atoms: _353  and  _354
REMARK  139  A    between atoms: _357  and  _359
REMARK  140  A    between atoms: _359  and  _360
REMARK  141  A    between atoms: _359  and  _362
REMARK  142  A    between atoms: _362  and  _363
REMARK  143  A    between atoms: _363  and  _364
REMARK  144  A    between atoms: _364  and  _365
REMARK  145  A    between atoms: _365  and  _366
REMARK  146  A    between atoms: _370  and  _372
REMARK  147  A    between atoms: _372  and  _373
REMARK  148  A    between atoms: _372  and  _375
REMARK  149  A    between atoms: _375  and  _376
REMARK  150  A    between atoms: _379  and  _381
REMARK  151  A    between atoms: _381  and  _382
REMARK  152  A    between atoms: _381  and  _384
REMARK  153  A    between atoms: _384  and  _385
REMARK  154  A    between atoms: _390  and  _391
REMARK  155  A    between atoms: _393  and  _395
REMARK  156  A    between atoms: _395  and  _396
REMARK  157  A    between atoms: _395  and  _398
REMARK  158  A    between atoms: _398  and  _399
REMARK  159  A    between atoms: _399  and  _400
REMARK  160  A    between atoms: _405  and  _407
REMARK  161  A    between atoms: _407  and  _408
REMARK  162  A    between atoms: _407  and  _410
REMARK  163  A    between atoms: _410  and  _411
REMARK  164  A    between atoms: _414  and  _416
REMARK  165  A    between atoms: _416  and  _417
REMARK  166  A    between atoms: _416  and  _419
REMARK  167  A    between atoms: _419  and  _420
REMARK  168  A    between atoms: _423  and  _425
REMARK  169  A    between atoms: _425  and  _426
REMARK  170  A    between atoms: _425  and  _428
REMARK  171  A    between atoms: _431  and  _433
REMARK  172  A    between atoms: _433  and  _434
REMARK  173  A    between atoms: _436  and  _438
REMARK  174  A    between atoms: _438  and  _439
REMARK  175  A    between atoms: _438  and  _441
REMARK  176  A    between atoms: _445  and  _446
REMARK  177  A    between atoms: _451  and  _453
REMARK  178  A    between atoms: _453  and  _454
REMARK  179  A    between atoms: _453  and  _456
REMARK  180  A    between atoms: _456  and  _457
REMARK  181  A    between atoms: _460  and  _462
REMARK  182  A    between atoms: _462  and  _463
REMARK  183  A    between atoms: _462  and  _465
REMARK  184  A    between atoms: _468  and  _470
REMARK  185  A    between atoms: _470  and  _471
REMARK  186  A    between atoms: _470  and  _473
REMARK  187  A    between atoms: _473  and  _474
REMARK  188  A    between atoms: _474  and  _475
REMARK  189  A    between atoms: _475  and  _476
REMARK  190  A    between atoms: _485  and  _487
REMARK  191  A    between atoms: _487  and  _488
REMARK  192  A    between atoms: _487  and  _490
REMARK  193  A    between atoms: _490  and  _491
REMARK  194  A    between atoms: _491  and  _492
REMARK  195  A    between atoms: _495  and  _497
REMARK  196  A    between atoms: _497  and  _498
REMARK  197  A    between atoms: _497  and  _500
REMARK  198  A    between atoms: _500  and  _501
REMARK  199  A    between atoms: _504  and  _506
REMARK  200  A    between atoms: _506  and  _507
REMARK  201  A    between atoms: _510  and  _512
REMARK  202  A    between atoms: _512  and  _513
REMARK  203  A    between atoms: _512  and  _515
REMARK  204  A    between atoms: _515  and  _516
REMARK  205  A    between atoms: _516  and  _517
REMARK  206  A    between atoms: _519  and  _521
REMARK  207  A    between atoms: _521  and  _522
REMARK  208  A    between atoms: _521  and  _524
REMARK  209  A    between atoms: _524  and  _525
REMARK  210  A    between atoms: _527  and  _529
REMARK  211  A    between atoms: _529  and  _530
REMARK  212  A    between atoms: _529  and  _532
REMARK  213  A    between atoms: _532  and  _533
REMARK  214  A    between atoms: _535  and  _537
REMARK  215  A    between atoms: _537  and  _538
REMARK  216  A    between atoms: _537  and  _540
REMARK  217  A    between atoms: _540  and  _541
REMARK  218  A    between atoms: _541  and  _542
REMARK  219  A    between atoms: _542  and  _543
REMARK  220  A    between atoms: _552  and  _554
REMARK  221  A    between atoms: _554  and  _555
REMARK  222  A    between atoms: _554  and  _557
REMARK  223  A    between atoms: _557  and  _558
REMARK  224  A    between atoms: _563  and  _565
REMARK  225  A    between atoms: _565  and  _566
REMARK  226  A    between atoms: _565  and  _568
REMARK  227  A    between atoms: _568  and  _569
REMARK  228  A    between atoms: _572  and  _574
REMARK  229  A    between atoms: _574  and  _575
REMARK  230  A    between atoms: _574  and  _577
REMARK  231  A    between atoms: _577  and  _578
REMARK  232  A    between atoms: _581  and  _583
REMARK  233  A    between atoms: _583  and  _584
REMARK  234  A    between atoms: _583  and  _586
REMARK  235  A    between atoms: _586  and  _587
REMARK                            x       y       z     vdW  Elec       q    Type
REMARK                         _______ _______ _______ _____ _____    ______ ____
ROOT
ATOM      1  O   HOH     1      22.331  10.704   5.711  0.00  0.00    +0.000 OA
ENDROOT
TORSDOF 0
REMARK  Name = ../refined-set-2016/3ioe/3ioe_pocket.pdb
REMARK  235 active torsions:
REMARK  status: ('A' for Active; 'I' for Inactive)
REMARK    1  A    between atoms: _1  and  _3
REMARK    2  A    between atoms: _3  and  _4
REMARK    3  A    between atoms: _3  and  _6
REMARK    4  A    between atoms: _10  and  _11
REMARK    5  A    between atoms: _16  and  _18
REMARK    6  A    between atoms: _18  and  _19
REMARK    7  A    between atoms: _18  and  _21
REMARK    8  A    between atoms: _21  and  _22
REMARK    9  A    between atoms: _25  and  _27
REMARK   10  A    between atoms: _27  and  _28
REMARK   11  A    between atoms: _27  and  _30
REMARK   12  A    between atoms: _30  and  _31
REMARK   13  A    between atoms: _31  and  _32
REMARK   14  A    between atoms: _34  and  _36
REMARK   15  A    between atoms: _36  and  _37
REMARK   16  A    between atoms: _39  and  _41
REMARK   17  A    between atoms: _41  and  _42
REMARK   18  A    between atoms: _45  and  _47
REMARK   19  A    between atoms: _47  and  _48
REMARK   20  A    between atoms: _47  and  _50
REMARK   21  A    between atoms: _50  and  _51
REMARK   22  A    between atoms: _54  and  _56
REMARK   23  A    between atoms: _56  and  _57
REMARK   24  A    between atoms: _56  and  _59
REMARK   25  A    between atoms: _59  and  _60
REMARK   26  A    between atoms: _65  and  _67
REMARK   27  A    between atoms: _67  and  _68
REMARK   28  A    between atoms: _67  and  _70
REMARK   29  A    between atoms: _70  and  _71
REMARK   30  A    between atoms: _71  and  _72
REMARK   31  A    between atoms: _75  and  _77
REMARK   32  A    between atoms: _77  and  _78
REMARK   33  A    between atoms: _80  and  _82
REMARK   34  A    between atoms: _82  and  _83
REMARK   35  A    between atoms: _82  and  _85
REMARK   36  A    between atoms: _85  and  _86
REMARK   37  A    between atoms: _91  and  _93
REMARK   38  A    between atoms: _93  and  _94
REMARK   39  A    between atoms: _93  and  _96
REMARK   40  A    between atoms: _96  and  _97
REMARK   41  A    between atoms: _100  and  _102
REMARK   42  A    between atoms: _102  and  _103
REMARK   43  A    between atoms: _106  and  _108
REMARK   44  A    between atoms: _108  and  _109
REMARK   45  A    between atoms: _108  and  _111
REMARK   46  A    between atoms: _111  and  _112
REMARK   47  A    between atoms: _115  and  _117
REMARK   48  A    between atoms: _117  and  _118
REMARK   49  A    between atoms: _117  and  _120
REMARK   50  A    between atoms: _123  and  _125
REMARK   51  A    between atoms: _125  and  _126
REMARK   52  A    between atoms: _125  and  _128
REMARK   53  A    between atoms: _128  and  _129
REMARK   54  A    between atoms: _131  and  _133
REMARK   55  A    between atoms: _133  and  _134
REMARK   56  A    between atoms: _133  and  _136
REMARK   57  A    between atoms: _136  and  _137
REMARK   58  A    between atoms: _140  and  _142
REMARK   59  A    between atoms: _142  and  _143
REMARK   60  A    between atoms: _142  and  _145
REMARK   61  A    between atoms: _145  and  _146
REMARK   62  A    between atoms: _152  and  _154
REMARK   63  A    between atoms: _154  and  _155
REMARK   64  A    between atoms: _154  and  _157
REMARK   65  A    between atoms: _160  and  _162
REMARK   66  A    between atoms: _162  and  _163
REMARK   67  A    between atoms: _162  and  _165
REMARK   68  A    between atoms: _165  and  _166
REMARK   69  A    between atoms: _172  and  _173
REMARK   70  A    between atoms: _178  and  _180
REMARK   71  A    between atoms: _180  and  _181
REMARK   72  A    between atoms: _180  and  _183
REMARK   73  A    between atoms: _183  and  _184
REMARK   74  A    between atoms: _184  and  _185
REMARK   75  A    between atoms: _190  and  _192
REMARK   76  A    between atoms: _192  and  _193
REMARK   77  A    between atoms: _192  and  _195
REMARK   78  A    between atoms: _195  and  _196
REMARK   79  A    between atoms: _202  and  _204
REMARK   80  A    between atoms: _204  and  _205
REMARK   81  A    between atoms: _204  and  _207
REMARK   82  A    between atoms: _207  and  _208
REMARK   83  A    between atoms: _213  and  _214
REMARK   84  A    between atoms: _216  and  _218
REMARK   85  A    between atoms: _218  and  _219
REMARK   86  A    between atoms: _218  and  _221
REMARK   87  A    between atoms: _221  and  _222
REMARK   88  A    between atoms: _227  and  _228
REMARK   89  A    between atoms: _230  and  _232
REMARK   90  A    between atoms: _232  and  _233
REMARK   91  A    between atoms: _232  and  _235
REMARK   92  A    between atoms: _235  and  _236
REMARK   93  A    between atoms: _241  and  _243
REMARK   94  A    between atoms: _243  and  _244
REMARK   95  A    between atoms: _243  and  _246
REMARK   96  A    between atoms: _246  and  _247
REMARK   97  A    between atoms: _253  and  _255
REMARK   98  A    between atoms: _255  and  _256
REMARK   99  A    between atoms: _258  and  _260
REMARK  100  A    between atoms: _260  and  _261
REMARK  101  A    between atoms: _260  and  _263
REMARK  102  A    between atoms: _266  and  _268
REMARK  103  A    between atoms: _268  and  _269
REMARK  104  A    between atoms: _268  and  _271
REMARK  105  A    between atoms: _271  and  _272
REMARK  106  A    between atoms: _275  and  _277
REMARK  107  A    between atoms: _277  and  _278
REMARK  108  A    between atoms: _277  and  _280
REMARK  109  A    between atoms: _280  and  _281
REMARK  110  A    between atoms: _284  and  _286
REMARK  111  A    between atoms: _286  and  _287
REMARK  112  A    between atoms: _286  and  _289
REMARK  113  A    between atoms: _292  and  _294
REMARK  114  A    between atoms: _294  and  _295
REMARK  115  A    between atoms: _294  and  _297
REMARK  116  A    between atoms: _300  and  _302
REMARK  117  A    between atoms: _302  and  _303
REMARK  118  A    between atoms: _302  and  _305
REMARK  119  A    between atoms: _305  and  _306
REMARK  120  A    between atoms: _309  and  _311
REMARK  121  A    between atoms: _311  and  _312
REMARK  122  A    between atoms: _311  and  _314
REMARK  123  A    between atoms: _314  and  _315
REMARK  124  A    between atoms: _318  and  _320
REMARK  125  A    between atoms: _320  and  _321
REMARK  126  A    between atoms: _320  and  _323
REMARK  127  A    between atoms: _323  and  _324
REMARK  128  A    between atoms: _330  and  _332
REMARK  129  A    between atoms: _332  and  _333
REMARK  130  A    between atoms: _332  and  _335
REMARK  131  A    between atoms: _335  and  _336
REMARK  132  A    between atoms: _342  and  _344
REMARK  133  A    between atoms: _344  and  _345
REMARK  134  A    between atoms: _347  and  _349
REMARK  135  A    between atoms: _349  and  _350
REMARK  136  A    between atoms: _349  and  _352
REMARK  137  A    between atoms: _352  and  _353
REMARK  138  A    between atoms: _353  and  _354
REMARK  139  A    between atoms: _357  and  _359
REMARK  140  A    between atoms: _359  and  _360
REMARK  141  A    between atoms: _359  and  _362
REMARK  142  A    between atoms: _362  and  _363
REMARK  143  A    between atoms: _363  and  _364
REMARK  144  A    between atoms: _364  and  _365
REMARK  145  A    between atoms: _365  and  _366
REMARK  146  A    between atoms: _370  and  _372
REMARK  147  A    between atoms: _372  and  _373
REMARK  148  A    between atoms: _372  and  _375
REMARK  149  A    between atoms: _375  and  _376
REMARK  150  A    between atoms: _379  and  _381
REMARK  151  A    between atoms: _381  and  _382
REMARK  152  A    between atoms: _381  and  _384
REMARK  153  A    between atoms: _384  and  _385
REMARK  154  A    between atoms: _390  and  _391
REMARK  155  A    between atoms: _393  and  _395
REMARK  156  A    between atoms: _395  and  _396
REMARK  157  A    between atoms: _395  and  _398
REMARK  158  A    between atoms: _398  and  _399
REMARK  159  A    between atoms: _399  and  _400
REMARK  160  A    between atoms: _405  and  _407
REMARK  161  A    between atoms: _407  and  _408
REMARK  162  A    between atoms: _407  and  _410
REMARK  163  A    between atoms: _410  and  _411
REMARK  164  A    between atoms: _414  and  _416
REMARK  165  A    between atoms: _416  and  _417
REMARK  166  A    between atoms: _416  and  _419
REMARK  167  A    between atoms: _419  and  _420
REMARK  168  A    between atoms: _423  and  _425
REMARK  169  A    between atoms: _425  and  _426
REMARK  170  A    between atoms: _425  and  _428
REMARK  171  A    between atoms: _431  and  _433
REMARK  172  A    between atoms: _433  and  _434
REMARK  173  A    between atoms: _436  and  _438
REMARK  174  A    between atoms: _438  and  _439
REMARK  175  A    between atoms: _438  and  _441
REMARK  176  A    between atoms: _445  and  _446
REMARK  177  A    between atoms: _451  and  _453
REMARK  178  A    between atoms: _453  and  _454
REMARK  179  A    between atoms: _453  and  _456
REMARK  180  A    between atoms: _456  and  _457
REMARK  181  A    between atoms: _460  and  _462
REMARK  182  A    between atoms: _462  and  _463
REMARK  183  A    between atoms: _462  and  _465
REMARK  184  A    between atoms: _468  and  _470
REMARK  185  A    between atoms: _470  and  _471
REMARK  186  A    between atoms: _470  and  _473
REMARK  187  A    between atoms: _473  and  _474
REMARK  188  A    between atoms: _474  and  _475
REMARK  189  A    between atoms: _475  and  _476
REMARK  190  A    between atoms: _485  and  _487
REMARK  191  A    between atoms: _487  and  _488
REMARK  192  A    between atoms: _487  and  _490
REMARK  193  A    between atoms: _490  and  _491
REMARK  194  A    between atoms: _491  and  _492
REMARK  195  A    between atoms: _495  and  _497
REMARK  196  A    between atoms: _497  and  _498
REMARK  197  A    between atoms: _497  and  _500
REMARK  198  A    between atoms: _500  and  _501
REMARK  199  A    between atoms: _504  and  _506
REMARK  200  A    between atoms: _506  and  _507
REMARK  201  A    between atoms: _510  and  _512
REMARK  202  A    between atoms: _512  and  _513
REMARK  203  A    between atoms: _512  and  _515
REMARK  204  A    between atoms: _515  and  _516
REMARK  205  A    between atoms: _516  and  _517
REMARK  206  A    between atoms: _519  and  _521
REMARK  207  A    between atoms: _521  and  _522
REMARK  208  A    between atoms: _521  and  _524
REMARK  209  A    between atoms: _524  and  _525
REMARK  210  A    between atoms: _527  and  _529
REMARK  211  A    between atoms: _529  and  _530
REMARK  212  A    between atoms: _529  and  _532
REMARK  213  A    between atoms: _532  and  _533
REMARK  214  A    between atoms: _535  and  _537
REMARK  215  A    between atoms: _537  and  _538
REMARK  216  A    between atoms: _537  and  _540
REMARK  217  A    between atoms: _540  and  _541
REMARK  218  A    between atoms: _541  and  _542
REMARK  219  A    between atoms: _542  and  _543
REMARK  220  A    between atoms: _552  and  _554
REMARK  221  A    between atoms: _554  and  _555
REMARK  222  A    between atoms: _554  and  _557
REMARK  223  A    between atoms: _557  and  _558
REMARK  224  A    between atoms: _563  and  _565
REMARK  225  A    between atoms: _565  and  _566
REMARK  226  A    between atoms: _565  and  _568
REMARK  227  A    between atoms: _568  and  _569
REMARK  228  A    between atoms: _572  and  _574
REMARK  229  A    between atoms: _574  and  _575
REMARK  230  A    between atoms: _574  and  _577
REMARK  231  A    between atoms: _577  and  _578
REMARK  232  A    between atoms: _581  and  _583
REMARK  233  A    between atoms: _583  and  _584
REMARK  234  A    between atoms: _583  and  _586
REMARK  235  A    between atoms: _586  and  _587
REMARK                            x       y       z     vdW  Elec       q    Type
REMARK                         _______ _______ _______ _____ _____    ______ ____
ROOT
ATOM      1  O   HOH     1      12.538   3.113  -8.190  0.00  0.00    +0.000 OA
ENDROOT
TORSDOF 0
REMARK  Name = ../refined-set-2016/3ioe/3ioe_pocket.pdb
REMARK  235 active torsions:
REMARK  status: ('A' for Active; 'I' for Inactive)
REMARK    1  A    between atoms: _1  and  _3
REMARK    2  A    between atoms: _3  and  _4
REMARK    3  A    between atoms: _3  and  _6
REMARK    4  A    between atoms: _10  and  _11
REMARK    5  A    between atoms: _16  and  _18
REMARK    6  A    between atoms: _18  and  _19
REMARK    7  A    between atoms: _18  and  _21
REMARK    8  A    between atoms: _21  and  _22
REMARK    9  A    between atoms: _25  and  _27
REMARK   10  A    between atoms: _27  and  _28
REMARK   11  A    between atoms: _27  and  _30
REMARK   12  A    between atoms: _30  and  _31
REMARK   13  A    between atoms: _31  and  _32
REMARK   14  A    between atoms: _34  and  _36
REMARK   15  A    between atoms: _36  and  _37
REMARK   16  A    between atoms: _39  and  _41
REMARK   17  A    between atoms: _41  and  _42
REMARK   18  A    between atoms: _45  and  _47
REMARK   19  A    between atoms: _47  and  _48
REMARK   20  A    between atoms: _47  and  _50
REMARK   21  A    between atoms: _50  and  _51
REMARK   22  A    between atoms: _54  and  _56
REMARK   23  A    between atoms: _56  and  _57
REMARK   24  A    between atoms: _56  and  _59
REMARK   25  A    between atoms: _59  and  _60
REMARK   26  A    between atoms: _65  and  _67
REMARK   27  A    between atoms: _67  and  _68
REMARK   28  A    between atoms: _67  and  _70
REMARK   29  A    between atoms: _70  and  _71
REMARK   30  A    between atoms: _71  and  _72
REMARK   31  A    between atoms: _75  and  _77
REMARK   32  A    between atoms: _77  and  _78
REMARK   33  A    between atoms: _80  and  _82
REMARK   34  A    between atoms: _82  and  _83
REMARK   35  A    between atoms: _82  and  _85
REMARK   36  A    between atoms: _85  and  _86
REMARK   37  A    between atoms: _91  and  _93
REMARK   38  A    between atoms: _93  and  _94
REMARK   39  A    between atoms: _93  and  _96
REMARK   40  A    between atoms: _96  and  _97
REMARK   41  A    between atoms: _100  and  _102
REMARK   42  A    between atoms: _102  and  _103
REMARK   43  A    between atoms: _106  and  _108
REMARK   44  A    between atoms: _108  and  _109
REMARK   45  A    between atoms: _108  and  _111
REMARK   46  A    between atoms: _111  and  _112
REMARK   47  A    between atoms: _115  and  _117
REMARK   48  A    between atoms: _117  and  _118
REMARK   49  A    between atoms: _117  and  _120
REMARK   50  A    between atoms: _123  and  _125
REMARK   51  A    between atoms: _125  and  _126
REMARK   52  A    between atoms: _125  and  _128
REMARK   53  A    between atoms: _128  and  _129
REMARK   54  A    between atoms: _131  and  _133
REMARK   55  A    between atoms: _133  and  _134
REMARK   56  A    between atoms: _133  and  _136
REMARK   57  A    between atoms: _136  and  _137
REMARK   58  A    between atoms: _140  and  _142
REMARK   59  A    between atoms: _142  and  _143
REMARK   60  A    between atoms: _142  and  _145
REMARK   61  A    between atoms: _145  and  _146
REMARK   62  A    between atoms: _152  and  _154
REMARK   63  A    between atoms: _154  and  _155
REMARK   64  A    between atoms: _154  and  _157
REMARK   65  A    between atoms: _160  and  _162
REMARK   66  A    between atoms: _162  and  _163
REMARK   67  A    between atoms: _162  and  _165
REMARK   68  A    between atoms: _165  and  _166
REMARK   69  A    between atoms: _172  and  _173
REMARK   70  A    between atoms: _178  and  _180
REMARK   71  A    between atoms: _180  and  _181
REMARK   72  A    between atoms: _180  and  _183
REMARK   73  A    between atoms: _183  and  _184
REMARK   74  A    between atoms: _184  and  _185
REMARK   75  A    between atoms: _190  and  _192
REMARK   76  A    between atoms: _192  and  _193
REMARK   77  A    between atoms: _192  and  _195
REMARK   78  A    between atoms: _195  and  _196
REMARK   79  A    between atoms: _202  and  _204
REMARK   80  A    between atoms: _204  and  _205
REMARK   81  A    between atoms: _204  and  _207
REMARK   82  A    between atoms: _207  and  _208
REMARK   83  A    between atoms: _213  and  _214
REMARK   84  A    between atoms: _216  and  _218
REMARK   85  A    between atoms: _218  and  _219
REMARK   86  A    between atoms: _218  and  _221
REMARK   87  A    between atoms: _221  and  _222
REMARK   88  A    between atoms: _227  and  _228
REMARK   89  A    between atoms: _230  and  _232
REMARK   90  A    between atoms: _232  and  _233
REMARK   91  A    between atoms: _232  and  _235
REMARK   92  A    between atoms: _235  and  _236
REMARK   93  A    between atoms: _241  and  _243
REMARK   94  A    between atoms: _243  and  _244
REMARK   95  A    between atoms: _243  and  _246
REMARK   96  A    between atoms: _246  and  _247
REMARK   97  A    between atoms: _253  and  _255
REMARK   98  A    between atoms: _255  and  _256
REMARK   99  A    between atoms: _258  and  _260
REMARK  100  A    between atoms: _260  and  _261
REMARK  101  A    between atoms: _260  and  _263
REMARK  102  A    between atoms: _266  and  _268
REMARK  103  A    between atoms: _268  and  _269
REMARK  104  A    between atoms: _268  and  _271
REMARK  105  A    between atoms: _271  and  _272
REMARK  106  A    between atoms: _275  and  _277
REMARK  107  A    between atoms: _277  and  _278
REMARK  108  A    between atoms: _277  and  _280
REMARK  109  A    between atoms: _280  and  _281
REMARK  110  A    between atoms: _284  and  _286
REMARK  111  A    between atoms: _286  and  _287
REMARK  112  A    between atoms: _286  and  _289
REMARK  113  A    between atoms: _292  and  _294
REMARK  114  A    between atoms: _294  and  _295
REMARK  115  A    between atoms: _294  and  _297
REMARK  116  A    between atoms: _300  and  _302
REMARK  117  A    between atoms: _302  and  _303
REMARK  118  A    between atoms: _302  and  _305
REMARK  119  A    between atoms: _305  and  _306
REMARK  120  A    between atoms: _309  and  _311
REMARK  121  A    between atoms: _311  and  _312
REMARK  122  A    between atoms: _311  and  _314
REMARK  123  A    between atoms: _314  and  _315
REMARK  124  A    between atoms: _318  and  _320
REMARK  125  A    between atoms: _320  and  _321
REMARK  126  A    between atoms: _320  and  _323
REMARK  127  A    between atoms: _323  and  _324
REMARK  128  A    between atoms: _330  and  _332
REMARK  129  A    between atoms: _332  and  _333
REMARK  130  A    between atoms: _332  and  _335
REMARK  131  A    between atoms: _335  and  _336
REMARK  132  A    between atoms: _342  and  _344
REMARK  133  A    between atoms: _344  and  _345
REMARK  134  A    between atoms: _347  and  _349
REMARK  135  A    between atoms: _349  and  _350
REMARK  136  A    between atoms: _349  and  _352
REMARK  137  A    between atoms: _352  and  _353
REMARK  138  A    between atoms: _353  and  _354
REMARK  139  A    between atoms: _357  and  _359
REMARK  140  A    between atoms: _359  and  _360
REMARK  141  A    between atoms: _359  and  _362
REMARK  142  A    between atoms: _362  and  _363
REMARK  143  A    between atoms: _363  and  _364
REMARK  144  A    between atoms: _364  and  _365
REMARK  145  A    between atoms: _365  and  _366
REMARK  146  A    between atoms: _370  and  _372
REMARK  147  A    between atoms: _372  and  _373
REMARK  148  A    between atoms: _372  and  _375
REMARK  149  A    between atoms: _375  and  _376
REMARK  150  A    between atoms: _379  and  _381
REMARK  151  A    between atoms: _381  and  _382
REMARK  152  A    between atoms: _381  and  _384
REMARK  153  A    between atoms: _384  and  _385
REMARK  154  A    between atoms: _390  and  _391
REMARK  155  A    between atoms: _393  and  _395
REMARK  156  A    between atoms: _395  and  _396
REMARK  157  A    between atoms: _395  and  _398
REMARK  158  A    between atoms: _398  and  _399
REMARK  159  A    between atoms: _399  and  _400
REMARK  160  A    between atoms: _405  and  _407
REMARK  161  A    between atoms: _407  and  _408
REMARK  162  A    between atoms: _407  and  _410
REMARK  163  A    between atoms: _410  and  _411
REMARK  164  A    between atoms: _414  and  _416
REMARK  165  A    between atoms: _416  and  _417
REMARK  166  A    between atoms: _416  and  _419
REMARK  167  A    between atoms: _419  and  _420
REMARK  168  A    between atoms: _423  and  _425
REMARK  169  A    between atoms: _425  and  _426
REMARK  170  A    between atoms: _425  and  _428
REMARK  171  A    between atoms: _431  and  _433
REMARK  172  A    between atoms: _433  and  _434
REMARK  173  A    between atoms: _436  and  _438
REMARK  174  A    between atoms: _438  and  _439
REMARK  175  A    between atoms: _438  and  _441
REMARK  176  A    between atoms: _445  and  _446
REMARK  177  A    between atoms: _451  and  _453
REMARK  178  A    between atoms: _453  and  _454
REMARK  179  A    between atoms: _453  and  _456
REMARK  180  A    between atoms: _456  and  _457
REMARK  181  A    between atoms: _460  and  _462
REMARK  182  A    between atoms: _462  and  _463
REMARK  183  A    between atoms: _462  and  _465
REMARK  184  A    between atoms: _468  and  _470
REMARK  185  A    between atoms: _470  and  _471
REMARK  186  A    between atoms: _470  and  _473
REMARK  187  A    between atoms: _473  and  _474
REMARK  188  A    between atoms: _474  and  _475
REMARK  189  A    between atoms: _475  and  _476
REMARK  190  A    between atoms: _485  and  _487
REMARK  191  A    between atoms: _487  and  _488
REMARK  192  A    between atoms: _487  and  _490
REMARK  193  A    between atoms: _490  and  _491
REMARK  194  A    between atoms: _491  and  _492
REMARK  195  A    between atoms: _495  and  _497
REMARK  196  A    between atoms: _497  and  _498
REMARK  197  A    between atoms: _497  and  _500
REMARK  198  A    between atoms: _500  and  _501
REMARK  199  A    between atoms: _504  and  _506
REMARK  200  A    between atoms: _506  and  _507
REMARK  201  A    between atoms: _510  and  _512
REMARK  202  A    between atoms: _512  and  _513
REMARK  203  A    between atoms: _512  and  _515
REMARK  204  A    between atoms: _515  and  _516
REMARK  205  A    between atoms: _516  and  _517
REMARK  206  A    between atoms: _519  and  _521
REMARK  207  A    between atoms: _521  and  _522
REMARK  208  A    between atoms: _521  and  _524
REMARK  209  A    between atoms: _524  and  _525
REMARK  210  A    between atoms: _527  and  _529
REMARK  211  A    between atoms: _529  and  _530
REMARK  212  A    between atoms: _529  and  _532
REMARK  213  A    between atoms: _532  and  _533
REMARK  214  A    between atoms: _535  and  _537
REMARK  215  A    between atoms: _537  and  _538
REMARK  216  A    between atoms: _537  and  _540
REMARK  217  A    between atoms: _540  and  _541
REMARK  218  A    between atoms: _541  and  _542
REMARK  219  A    between atoms: _542  and  _543
REMARK  220  A    between atoms: _552  and  _554
REMARK  221  A    between atoms: _554  and  _555
REMARK  222  A    between atoms: _554  and  _557
REMARK  223  A    between atoms: _557  and  _558
REMARK  224  A    between atoms: _563  and  _565
REMARK  225  A    between atoms: _565  and  _566
REMARK  226  A    between atoms: _565  and  _568
REMARK  227  A    between atoms: _568  and  _569
REMARK  228  A    between atoms: _572  and  _574
REMARK  229  A    between atoms: _574  and  _575
REMARK  230  A    between atoms: _574  and  _577
REMARK  231  A    between atoms: _577  and  _578
REMARK  232  A    between atoms: _581  and  _583
REMARK  233  A    between atoms: _583  and  _584
REMARK  234  A    between atoms: _583  and  _586
REMARK  235  A    between atoms: _586  and  _587
REMARK                            x       y       z     vdW  Elec       q    Type
REMARK                         _______ _______ _______ _____ _____    ______ ____
ROOT
ATOM      1  O   HOH     1      20.514   7.291   5.398  0.00  0.00    +0.000 OA
ENDROOT
TORSDOF 0
REMARK  Name = ../refined-set-2016/3ioe/3ioe_pocket.pdb
REMARK  235 active torsions:
REMARK  status: ('A' for Active; 'I' for Inactive)
REMARK    1  A    between atoms: _1  and  _3
REMARK    2  A    between atoms: _3  and  _4
REMARK    3  A    between atoms: _3  and  _6
REMARK    4  A    between atoms: _10  and  _11
REMARK    5  A    between atoms: _16  and  _18
REMARK    6  A    between atoms: _18  and  _19
REMARK    7  A    between atoms: _18  and  _21
REMARK    8  A    between atoms: _21  and  _22
REMARK    9  A    between atoms: _25  and  _27
REMARK   10  A    between atoms: _27  and  _28
REMARK   11  A    between atoms: _27  and  _30
REMARK   12  A    between atoms: _30  and  _31
REMARK   13  A    between atoms: _31  and  _32
REMARK   14  A    between atoms: _34  and  _36
REMARK   15  A    between atoms: _36  and  _37
REMARK   16  A    between atoms: _39  and  _41
REMARK   17  A    between atoms: _41  and  _42
REMARK   18  A    between atoms: _45  and  _47
REMARK   19  A    between atoms: _47  and  _48
REMARK   20  A    between atoms: _47  and  _50
REMARK   21  A    between atoms: _50  and  _51
REMARK   22  A    between atoms: _54  and  _56
REMARK   23  A    between atoms: _56  and  _57
REMARK   24  A    between atoms: _56  and  _59
REMARK   25  A    between atoms: _59  and  _60
REMARK   26  A    between atoms: _65  and  _67
REMARK   27  A    between atoms: _67  and  _68
REMARK   28  A    between atoms: _67  and  _70
REMARK   29  A    between atoms: _70  and  _71
REMARK   30  A    between atoms: _71  and  _72
REMARK   31  A    between atoms: _75  and  _77
REMARK   32  A    between atoms: _77  and  _78
REMARK   33  A    between atoms: _80  and  _82
REMARK   34  A    between atoms: _82  and  _83
REMARK   35  A    between atoms: _82  and  _85
REMARK   36  A    between atoms: _85  and  _86
REMARK   37  A    between atoms: _91  and  _93
REMARK   38  A    between atoms: _93  and  _94
REMARK   39  A    between atoms: _93  and  _96
REMARK   40  A    between atoms: _96  and  _97
REMARK   41  A    between atoms: _100  and  _102
REMARK   42  A    between atoms: _102  and  _103
REMARK   43  A    between atoms: _106  and  _108
REMARK   44  A    between atoms: _108  and  _109
REMARK   45  A    between atoms: _108  and  _111
REMARK   46  A    between atoms: _111  and  _112
REMARK   47  A    between atoms: _115  and  _117
REMARK   48  A    between atoms: _117  and  _118
REMARK   49  A    between atoms: _117  and  _120
REMARK   50  A    between atoms: _123  and  _125
REMARK   51  A    between atoms: _125  and  _126
REMARK   52  A    between atoms: _125  and  _128
REMARK   53  A    between atoms: _128  and  _129
REMARK   54  A    between atoms: _131  and  _133
REMARK   55  A    between atoms: _133  and  _134
REMARK   56  A    between atoms: _133  and  _136
REMARK   57  A    between atoms: _136  and  _137
REMARK   58  A    between atoms: _140  and  _142
REMARK   59  A    between atoms: _142  and  _143
REMARK   60  A    between atoms: _142  and  _145
REMARK   61  A    between atoms: _145  and  _146
REMARK   62  A    between atoms: _152  and  _154
REMARK   63  A    between atoms: _154  and  _155
REMARK   64  A    between atoms: _154  and  _157
REMARK   65  A    between atoms: _160  and  _162
REMARK   66  A    between atoms: _162  and  _163
REMARK   67  A    between atoms: _162  and  _165
REMARK   68  A    between atoms: _165  and  _166
REMARK   69  A    between atoms: _172  and  _173
REMARK   70  A    between atoms: _178  and  _180
REMARK   71  A    between atoms: _180  and  _181
REMARK   72  A    between atoms: _180  and  _183
REMARK   73  A    between atoms: _183  and  _184
REMARK   74  A    between atoms: _184  and  _185
REMARK   75  A    between atoms: _190  and  _192
REMARK   76  A    between atoms: _192  and  _193
REMARK   77  A    between atoms: _192  and  _195
REMARK   78  A    between atoms: _195  and  _196
REMARK   79  A    between atoms: _202  and  _204
REMARK   80  A    between atoms: _204  and  _205
REMARK   81  A    between atoms: _204  and  _207
REMARK   82  A    between atoms: _207  and  _208
REMARK   83  A    between atoms: _213  and  _214
REMARK   84  A    between atoms: _216  and  _218
REMARK   85  A    between atoms: _218  and  _219
REMARK   86  A    between atoms: _218  and  _221
REMARK   87  A    between atoms: _221  and  _222
REMARK   88  A    between atoms: _227  and  _228
REMARK   89  A    between atoms: _230  and  _232
REMARK   90  A    between atoms: _232  and  _233
REMARK   91  A    between atoms: _232  and  _235
REMARK   92  A    between atoms: _235  and  _236
REMARK   93  A    between atoms: _241  and  _243
REMARK   94  A    between atoms: _243  and  _244
REMARK   95  A    between atoms: _243  and  _246
REMARK   96  A    between atoms: _246  and  _247
REMARK   97  A    between atoms: _253  and  _255
REMARK   98  A    between atoms: _255  and  _256
REMARK   99  A    between atoms: _258  and  _260
REMARK  100  A    between atoms: _260  and  _261
REMARK  101  A    between atoms: _260  and  _263
REMARK  102  A    between atoms: _266  and  _268
REMARK  103  A    between atoms: _268  and  _269
REMARK  104  A    between atoms: _268  and  _271
REMARK  105  A    between atoms: _271  and  _272
REMARK  106  A    between atoms: _275  and  _277
REMARK  107  A    between atoms: _277  and  _278
REMARK  108  A    between atoms: _277  and  _280
REMARK  109  A    between atoms: _280  and  _281
REMARK  110  A    between atoms: _284  and  _286
REMARK  111  A    between atoms: _286  and  _287
REMARK  112  A    between atoms: _286  and  _289
REMARK  113  A    between atoms: _292  and  _294
REMARK  114  A    between atoms: _294  and  _295
REMARK  115  A    between atoms: _294  and  _297
REMARK  116  A    between atoms: _300  and  _302
REMARK  117  A    between atoms: _302  and  _303
REMARK  118  A    between atoms: _302  and  _305
REMARK  119  A    between atoms: _305  and  _306
REMARK  120  A    between atoms: _309  and  _311
REMARK  121  A    between atoms: _311  and  _312
REMARK  122  A    between atoms: _311  and  _314
REMARK  123  A    between atoms: _314  and  _315
REMARK  124  A    between atoms: _318  and  _320
REMARK  125  A    between atoms: _320  and  _321
REMARK  126  A    between atoms: _320  and  _323
REMARK  127  A    between atoms: _323  and  _324
REMARK  128  A    between atoms: _330  and  _332
REMARK  129  A    between atoms: _332  and  _333
REMARK  130  A    between atoms: _332  and  _335
REMARK  131  A    between atoms: _335  and  _336
REMARK  132  A    between atoms: _342  and  _344
REMARK  133  A    between atoms: _344  and  _345
REMARK  134  A    between atoms: _347  and  _349
REMARK  135  A    between atoms: _349  and  _350
REMARK  136  A    between atoms: _349  and  _352
REMARK  137  A    between atoms: _352  and  _353
REMARK  138  A    between atoms: _353  and  _354
REMARK  139  A    between atoms: _357  and  _359
REMARK  140  A    between atoms: _359  and  _360
REMARK  141  A    between atoms: _359  and  _362
REMARK  142  A    between atoms: _362  and  _363
REMARK  143  A    between atoms: _363  and  _364
REMARK  144  A    between atoms: _364  and  _365
REMARK  145  A    between atoms: _365  and  _366
REMARK  146  A    between atoms: _370  and  _372
REMARK  147  A    between atoms: _372  and  _373
REMARK  148  A    between atoms: _372  and  _375
REMARK  149  A    between atoms: _375  and  _376
REMARK  150  A    between atoms: _379  and  _381
REMARK  151  A    between atoms: _381  and  _382
REMARK  152  A    between atoms: _381  and  _384
REMARK  153  A    between atoms: _384  and  _385
REMARK  154  A    between atoms: _390  and  _391
REMARK  155  A    between atoms: _393  and  _395
REMARK  156  A    between atoms: _395  and  _396
REMARK  157  A    between atoms: _395  and  _398
REMARK  158  A    between atoms: _398  and  _399
REMARK  159  A    between atoms: _399  and  _400
REMARK  160  A    between atoms: _405  and  _407
REMARK  161  A    between atoms: _407  and  _408
REMARK  162  A    between atoms: _407  and  _410
REMARK  163  A    between atoms: _410  and  _411
REMARK  164  A    between atoms: _414  and  _416
REMARK  165  A    between atoms: _416  and  _417
REMARK  166  A    between atoms: _416  and  _419
REMARK  167  A    between atoms: _419  and  _420
REMARK  168  A    between atoms: _423  and  _425
REMARK  169  A    between atoms: _425  and  _426
REMARK  170  A    between atoms: _425  and  _428
REMARK  171  A    between atoms: _431  and  _433
REMARK  172  A    between atoms: _433  and  _434
REMARK  173  A    between atoms: _436  and  _438
REMARK  174  A    between atoms: _438  and  _439
REMARK  175  A    between atoms: _438  and  _441
REMARK  176  A    between atoms: _445  and  _446
REMARK  177  A    between atoms: _451  and  _453
REMARK  178  A    between atoms: _453  and  _454
REMARK  179  A    between atoms: _453  and  _456
REMARK  180  A    between atoms: _456  and  _457
REMARK  181  A    between atoms: _460  and  _462
REMARK  182  A    between atoms: _462  and  _463
REMARK  183  A    between atoms: _462  and  _465
REMARK  184  A    between atoms: _468  and  _470
REMARK  185  A    between atoms: _470  and  _471
REMARK  186  A    between atoms: _470  and  _473
REMARK  187  A    between atoms: _473  and  _474
REMARK  188  A    between atoms: _474  and  _475
REMARK  189  A    between atoms: _475  and  _476
REMARK  190  A    between atoms: _485  and  _487
REMARK  191  A    between atoms: _487  and  _488
REMARK  192  A    between atoms: _487  and  _490
REMARK  193  A    between atoms: _490  and  _491
REMARK  194  A    between atoms: _491  and  _492
REMARK  195  A    between atoms: _495  and  _497
REMARK  196  A    between atoms: _497  and  _498
REMARK  197  A    between atoms: _497  and  _500
REMARK  198  A    between atoms: _500  and  _501
REMARK  199  A    between atoms: _504  and  _506
REMARK  200  A    between atoms: _506  and  _507
REMARK  201  A    between atoms: _510  and  _512
REMARK  202  A    between atoms: _512  and  _513
REMARK  203  A    between atoms: _512  and  _515
REMARK  204  A    between atoms: _515  and  _516
REMARK  205  A    between atoms: _516  and  _517
REMARK  206  A    between atoms: _519  and  _521
REMARK  207  A    between atoms: _521  and  _522
REMARK  208  A    between atoms: _521  and  _524
REMARK  209  A    between atoms: _524  and  _525
REMARK  210  A    between atoms: _527  and  _529
REMARK  211  A    between atoms: _529  and  _530
REMARK  212  A    between atoms: _529  and  _532
REMARK  213  A    between atoms: _532  and  _533
REMARK  214  A    between atoms: _535  and  _537
REMARK  215  A    between atoms: _537  and  _538
REMARK  216  A    between atoms: _537  and  _540
REMARK  217  A    between atoms: _540  and  _541
REMARK  218  A    between atoms: _541  and  _542
REMARK  219  A    between atoms: _542  and  _543
REMARK  220  A    between atoms: _552  and  _554
REMARK  221  A    between atoms: _554  and  _555
REMARK  222  A    between atoms: _554  and  _557
REMARK  223  A    between atoms: _557  and  _558
REMARK  224  A    between atoms: _563  and  _565
REMARK  225  A    between atoms: _565  and  _566
REMARK  226  A    between atoms: _565  and  _568
REMARK  227  A    between atoms: _568  and  _569
REMARK  228  A    between atoms: _572  and  _574
REMARK  229  A    between atoms: _574  and  _575
REMARK  230  A    between atoms: _574  and  _577
REMARK  231  A    between atoms: _577  and  _578
REMARK  232  A    between atoms: _581  and  _583
REMARK  233  A    between atoms: _583  and  _584
REMARK  234  A    between atoms: _583  and  _586
REMARK  235  A    between atoms: _586  and  _587
REMARK                            x       y       z     vdW  Elec       q    Type
REMARK                         _______ _______ _______ _____ _____    ______ ____
ROOT
ATOM      1  O   HOH     1      18.679   1.856   2.105  0.00  0.00    +0.000 OA
ENDROOT
TORSDOF 0
REMARK  Name = ../refined-set-2016/3ioe/3ioe_pocket.pdb
REMARK  235 active torsions:
REMARK  status: ('A' for Active; 'I' for Inactive)
REMARK    1  A    between atoms: _1  and  _3
REMARK    2  A    between atoms: _3  and  _4
REMARK    3  A    between atoms: _3  and  _6
REMARK    4  A    between atoms: _10  and  _11
REMARK    5  A    between atoms: _16  and  _18
REMARK    6  A    between atoms: _18  and  _19
REMARK    7  A    between atoms: _18  and  _21
REMARK    8  A    between atoms: _21  and  _22
REMARK    9  A    between atoms: _25  and  _27
REMARK   10  A    between atoms: _27  and  _28
REMARK   11  A    between atoms: _27  and  _30
REMARK   12  A    between atoms: _30  and  _31
REMARK   13  A    between atoms: _31  and  _32
REMARK   14  A    between atoms: _34  and  _36
REMARK   15  A    between atoms: _36  and  _37
REMARK   16  A    between atoms: _39  and  _41
REMARK   17  A    between atoms: _41  and  _42
REMARK   18  A    between atoms: _45  and  _47
REMARK   19  A    between atoms: _47  and  _48
REMARK   20  A    between atoms: _47  and  _50
REMARK   21  A    between atoms: _50  and  _51
REMARK   22  A    between atoms: _54  and  _56
REMARK   23  A    between atoms: _56  and  _57
REMARK   24  A    between atoms: _56  and  _59
REMARK   25  A    between atoms: _59  and  _60
REMARK   26  A    between atoms: _65  and  _67
REMARK   27  A    between atoms: _67  and  _68
REMARK   28  A    between atoms: _67  and  _70
REMARK   29  A    between atoms: _70  and  _71
REMARK   30  A    between atoms: _71  and  _72
REMARK   31  A    between atoms: _75  and  _77
REMARK   32  A    between atoms: _77  and  _78
REMARK   33  A    between atoms: _80  and  _82
REMARK   34  A    between atoms: _82  and  _83
REMARK   35  A    between atoms: _82  and  _85
REMARK   36  A    between atoms: _85  and  _86
REMARK   37  A    between atoms: _91  and  _93
REMARK   38  A    between atoms: _93  and  _94
REMARK   39  A    between atoms: _93  and  _96
REMARK   40  A    between atoms: _96  and  _97
REMARK   41  A    between atoms: _100  and  _102
REMARK   42  A    between atoms: _102  and  _103
REMARK   43  A    between atoms: _106  and  _108
REMARK   44  A    between atoms: _108  and  _109
REMARK   45  A    between atoms: _108  and  _111
REMARK   46  A    between atoms: _111  and  _112
REMARK   47  A    between atoms: _115  and  _117
REMARK   48  A    between atoms: _117  and  _118
REMARK   49  A    between atoms: _117  and  _120
REMARK   50  A    between atoms: _123  and  _125
REMARK   51  A    between atoms: _125  and  _126
REMARK   52  A    between atoms: _125  and  _128
REMARK   53  A    between atoms: _128  and  _129
REMARK   54  A    between atoms: _131  and  _133
REMARK   55  A    between atoms: _133  and  _134
REMARK   56  A    between atoms: _133  and  _136
REMARK   57  A    between atoms: _136  and  _137
REMARK   58  A    between atoms: _140  and  _142
REMARK   59  A    between atoms: _142  and  _143
REMARK   60  A    between atoms: _142  and  _145
REMARK   61  A    between atoms: _145  and  _146
REMARK   62  A    between atoms: _152  and  _154
REMARK   63  A    between atoms: _154  and  _155
REMARK   64  A    between atoms: _154  and  _157
REMARK   65  A    between atoms: _160  and  _162
REMARK   66  A    between atoms: _162  and  _163
REMARK   67  A    between atoms: _162  and  _165
REMARK   68  A    between atoms: _165  and  _166
REMARK   69  A    between atoms: _172  and  _173
REMARK   70  A    between atoms: _178  and  _180
REMARK   71  A    between atoms: _180  and  _181
REMARK   72  A    between atoms: _180  and  _183
REMARK   73  A    between atoms: _183  and  _184
REMARK   74  A    between atoms: _184  and  _185
REMARK   75  A    between atoms: _190  and  _192
REMARK   76  A    between atoms: _192  and  _193
REMARK   77  A    between atoms: _192  and  _195
REMARK   78  A    between atoms: _195  and  _196
REMARK   79  A    between atoms: _202  and  _204
REMARK   80  A    between atoms: _204  and  _205
REMARK   81  A    between atoms: _204  and  _207
REMARK   82  A    between atoms: _207  and  _208
REMARK   83  A    between atoms: _213  and  _214
REMARK   84  A    between atoms: _216  and  _218
REMARK   85  A    between atoms: _218  and  _219
REMARK   86  A    between atoms: _218  and  _221
REMARK   87  A    between atoms: _221  and  _222
REMARK   88  A    between atoms: _227  and  _228
REMARK   89  A    between atoms: _230  and  _232
REMARK   90  A    between atoms: _232  and  _233
REMARK   91  A    between atoms: _232  and  _235
REMARK   92  A    between atoms: _235  and  _236
REMARK   93  A    between atoms: _241  and  _243
REMARK   94  A    between atoms: _243  and  _244
REMARK   95  A    between atoms: _243  and  _246
REMARK   96  A    between atoms: _246  and  _247
REMARK   97  A    between atoms: _253  and  _255
REMARK   98  A    between atoms: _255  and  _256
REMARK   99  A    between atoms: _258  and  _260
REMARK  100  A    between atoms: _260  and  _261
REMARK  101  A    between atoms: _260  and  _263
REMARK  102  A    between atoms: _266  and  _268
REMARK  103  A    between atoms: _268  and  _269
REMARK  104  A    between atoms: _268  and  _271
REMARK  105  A    between atoms: _271  and  _272
REMARK  106  A    between atoms: _275  and  _277
REMARK  107  A    between atoms: _277  and  _278
REMARK  108  A    between atoms: _277  and  _280
REMARK  109  A    between atoms: _280  and  _281
REMARK  110  A    between atoms: _284  and  _286
REMARK  111  A    between atoms: _286  and  _287
REMARK  112  A    between atoms: _286  and  _289
REMARK  113  A    between atoms: _292  and  _294
REMARK  114  A    between atoms: _294  and  _295
REMARK  115  A    between atoms: _294  and  _297
REMARK  116  A    between atoms: _300  and  _302
REMARK  117  A    between atoms: _302  and  _303
REMARK  118  A    between atoms: _302  and  _305
REMARK  119  A    between atoms: _305  and  _306
REMARK  120  A    between atoms: _309  and  _311
REMARK  121  A    between atoms: _311  and  _312
REMARK  122  A    between atoms: _311  and  _314
REMARK  123  A    between atoms: _314  and  _315
REMARK  124  A    between atoms: _318  and  _320
REMARK  125  A    between atoms: _320  and  _321
REMARK  126  A    between atoms: _320  and  _323
REMARK  127  A    between atoms: _323  and  _324
REMARK  128  A    between atoms: _330  and  _332
REMARK  129  A    between atoms: _332  and  _333
REMARK  130  A    between atoms: _332  and  _335
REMARK  131  A    between atoms: _335  and  _336
REMARK  132  A    between atoms: _342  and  _344
REMARK  133  A    between atoms: _344  and  _345
REMARK  134  A    between atoms: _347  and  _349
REMARK  135  A    between atoms: _349  and  _350
REMARK  136  A    between atoms: _349  and  _352
REMARK  137  A    between atoms: _352  and  _353
REMARK  138  A    between atoms: _353  and  _354
REMARK  139  A    between atoms: _357  and  _359
REMARK  140  A    between atoms: _359  and  _360
REMARK  141  A    between atoms: _359  and  _362
REMARK  142  A    between atoms: _362  and  _363
REMARK  143  A    between atoms: _363  and  _364
REMARK  144  A    between atoms: _364  and  _365
REMARK  145  A    between atoms: _365  and  _366
REMARK  146  A    between atoms: _370  and  _372
REMARK  147  A    between atoms: _372  and  _373
REMARK  148  A    between atoms: _372  and  _375
REMARK  149  A    between atoms: _375  and  _376
REMARK  150  A    between atoms: _379  and  _381
REMARK  151  A    between atoms: _381  and  _382
REMARK  152  A    between atoms: _381  and  _384
REMARK  153  A    between atoms: _384  and  _385
REMARK  154  A    between atoms: _390  and  _391
REMARK  155  A    between atoms: _393  and  _395
REMARK  156  A    between atoms: _395  and  _396
REMARK  157  A    between atoms: _395  and  _398
REMARK  158  A    between atoms: _398  and  _399
REMARK  159  A    between atoms: _399  and  _400
REMARK  160  A    between atoms: _405  and  _407
REMARK  161  A    between atoms: _407  and  _408
REMARK  162  A    between atoms: _407  and  _410
REMARK  163  A    between atoms: _410  and  _411
REMARK  164  A    between atoms: _414  and  _416
REMARK  165  A    between atoms: _416  and  _417
REMARK  166  A    between atoms: _416  and  _419
REMARK  167  A    between atoms: _419  and  _420
REMARK  168  A    between atoms: _423  and  _425
REMARK  169  A    between atoms: _425  and  _426
REMARK  170  A    between atoms: _425  and  _428
REMARK  171  A    between atoms: _431  and  _433
REMARK  172  A    between atoms: _433  and  _434
REMARK  173  A    between atoms: _436  and  _438
REMARK  174  A    between atoms: _438  and  _439
REMARK  175  A    between atoms: _438  and  _441
REMARK  176  A    between atoms: _445  and  _446
REMARK  177  A    between atoms: _451  and  _453
REMARK  178  A    between atoms: _453  and  _454
REMARK  179  A    between atoms: _453  and  _456
REMARK  180  A    between atoms: _456  and  _457
REMARK  181  A    between atoms: _460  and  _462
REMARK  182  A    between atoms: _462  and  _463
REMARK  183  A    between atoms: _462  and  _465
REMARK  184  A    between atoms: _468  and  _470
REMARK  185  A    between atoms: _470  and  _471
REMARK  186  A    between atoms: _470  and  _473
REMARK  187  A    between atoms: _473  and  _474
REMARK  188  A    between atoms: _474  and  _475
REMARK  189  A    between atoms: _475  and  _476
REMARK  190  A    between atoms: _485  and  _487
REMARK  191  A    between atoms: _487  and  _488
REMARK  192  A    between atoms: _487  and  _490
REMARK  193  A    between atoms: _490  and  _491
REMARK  194  A    between atoms: _491  and  _492
REMARK  195  A    between atoms: _495  and  _497
REMARK  196  A    between atoms: _497  and  _498
REMARK  197  A    between atoms: _497  and  _500
REMARK  198  A    between atoms: _500  and  _501
REMARK  199  A    between atoms: _504  and  _506
REMARK  200  A    between atoms: _506  and  _507
REMARK  201  A    between atoms: _510  and  _512
REMARK  202  A    between atoms: _512  and  _513
REMARK  203  A    between atoms: _512  and  _515
REMARK  204  A    between atoms: _515  and  _516
REMARK  205  A    between atoms: _516  and  _517
REMARK  206  A    between atoms: _519  and  _521
REMARK  207  A    between atoms: _521  and  _522
REMARK  208  A    between atoms: _521  and  _524
REMARK  209  A    between atoms: _524  and  _525
REMARK  210  A    between atoms: _527  and  _529
REMARK  211  A    between atoms: _529  and  _530
REMARK  212  A    between atoms: _529  and  _532
REMARK  213  A    between atoms: _532  and  _533
REMARK  214  A    between atoms: _535  and  _537
REMARK  215  A    between atoms: _537  and  _538
REMARK  216  A    between atoms: _537  and  _540
REMARK  217  A    between atoms: _540  and  _541
REMARK  218  A    between atoms: _541  and  _542
REMARK  219  A    between atoms: _542  and  _543
REMARK  220  A    between atoms: _552  and  _554
REMARK  221  A    between atoms: _554  and  _555
REMARK  222  A    between atoms: _554  and  _557
REMARK  223  A    between atoms: _557  and  _558
REMARK  224  A    between atoms: _563  and  _565
REMARK  225  A    between atoms: _565  and  _566
REMARK  226  A    between atoms: _565  and  _568
REMARK  227  A    between atoms: _568  and  _569
REMARK  228  A    between atoms: _572  and  _574
REMARK  229  A    between atoms: _574  and  _575
REMARK  230  A    between atoms: _574  and  _577
REMARK  231  A    between atoms: _577  and  _578
REMARK  232  A    between atoms: _581  and  _583
REMARK  233  A    between atoms: _583  and  _584
REMARK  234  A    between atoms: _583  and  _586
REMARK  235  A    between atoms: _586  and  _587
REMARK                            x       y       z     vdW  Elec       q    Type
REMARK                         _______ _______ _______ _____ _____    ______ ____
ROOT
ATOM      1  O   HOH     1      13.229   5.465 -11.183  0.00  0.00    +0.000 OA
ENDROOT
TORSDOF 0
REMARK  Name = ../refined-set-2016/3ioe/3ioe_pocket.pdb
REMARK  235 active torsions:
REMARK  status: ('A' for Active; 'I' for Inactive)
REMARK    1  A    between atoms: _1  and  _3
REMARK    2  A    between atoms: _3  and  _4
REMARK    3  A    between atoms: _3  and  _6
REMARK    4  A    between atoms: _10  and  _11
REMARK    5  A    between atoms: _16  and  _18
REMARK    6  A    between atoms: _18  and  _19
REMARK    7  A    between atoms: _18  and  _21
REMARK    8  A    between atoms: _21  and  _22
REMARK    9  A    between atoms: _25  and  _27
REMARK   10  A    between atoms: _27  and  _28
REMARK   11  A    between atoms: _27  and  _30
REMARK   12  A    between atoms: _30  and  _31
REMARK   13  A    between atoms: _31  and  _32
REMARK   14  A    between atoms: _34  and  _36
REMARK   15  A    between atoms: _36  and  _37
REMARK   16  A    between atoms: _39  and  _41
REMARK   17  A    between atoms: _41  and  _42
REMARK   18  A    between atoms: _45  and  _47
REMARK   19  A    between atoms: _47  and  _48
REMARK   20  A    between atoms: _47  and  _50
REMARK   21  A    between atoms: _50  and  _51
REMARK   22  A    between atoms: _54  and  _56
REMARK   23  A    between atoms: _56  and  _57
REMARK   24  A    between atoms: _56  and  _59
REMARK   25  A    between atoms: _59  and  _60
REMARK   26  A    between atoms: _65  and  _67
REMARK   27  A    between atoms: _67  and  _68
REMARK   28  A    between atoms: _67  and  _70
REMARK   29  A    between atoms: _70  and  _71
REMARK   30  A    between atoms: _71  and  _72
REMARK   31  A    between atoms: _75  and  _77
REMARK   32  A    between atoms: _77  and  _78
REMARK   33  A    between atoms: _80  and  _82
REMARK   34  A    between atoms: _82  and  _83
REMARK   35  A    between atoms: _82  and  _85
REMARK   36  A    between atoms: _85  and  _86
REMARK   37  A    between atoms: _91  and  _93
REMARK   38  A    between atoms: _93  and  _94
REMARK   39  A    between atoms: _93  and  _96
REMARK   40  A    between atoms: _96  and  _97
REMARK   41  A    between atoms: _100  and  _102
REMARK   42  A    between atoms: _102  and  _103
REMARK   43  A    between atoms: _106  and  _108
REMARK   44  A    between atoms: _108  and  _109
REMARK   45  A    between atoms: _108  and  _111
REMARK   46  A    between atoms: _111  and  _112
REMARK   47  A    between atoms: _115  and  _117
REMARK   48  A    between atoms: _117  and  _118
REMARK   49  A    between atoms: _117  and  _120
REMARK   50  A    between atoms: _123  and  _125
REMARK   51  A    between atoms: _125  and  _126
REMARK   52  A    between atoms: _125  and  _128
REMARK   53  A    between atoms: _128  and  _129
REMARK   54  A    between atoms: _131  and  _133
REMARK   55  A    between atoms: _133  and  _134
REMARK   56  A    between atoms: _133  and  _136
REMARK   57  A    between atoms: _136  and  _137
REMARK   58  A    between atoms: _140  and  _142
REMARK   59  A    between atoms: _142  and  _143
REMARK   60  A    between atoms: _142  and  _145
REMARK   61  A    between atoms: _145  and  _146
REMARK   62  A    between atoms: _152  and  _154
REMARK   63  A    between atoms: _154  and  _155
REMARK   64  A    between atoms: _154  and  _157
REMARK   65  A    between atoms: _160  and  _162
REMARK   66  A    between atoms: _162  and  _163
REMARK   67  A    between atoms: _162  and  _165
REMARK   68  A    between atoms: _165  and  _166
REMARK   69  A    between atoms: _172  and  _173
REMARK   70  A    between atoms: _178  and  _180
REMARK   71  A    between atoms: _180  and  _181
REMARK   72  A    between atoms: _180  and  _183
REMARK   73  A    between atoms: _183  and  _184
REMARK   74  A    between atoms: _184  and  _185
REMARK   75  A    between atoms: _190  and  _192
REMARK   76  A    between atoms: _192  and  _193
REMARK   77  A    between atoms: _192  and  _195
REMARK   78  A    between atoms: _195  and  _196
REMARK   79  A    between atoms: _202  and  _204
REMARK   80  A    between atoms: _204  and  _205
REMARK   81  A    between atoms: _204  and  _207
REMARK   82  A    between atoms: _207  and  _208
REMARK   83  A    between atoms: _213  and  _214
REMARK   84  A    between atoms: _216  and  _218
REMARK   85  A    between atoms: _218  and  _219
REMARK   86  A    between atoms: _218  and  _221
REMARK   87  A    between atoms: _221  and  _222
REMARK   88  A    between atoms: _227  and  _228
REMARK   89  A    between atoms: _230  and  _232
REMARK   90  A    between atoms: _232  and  _233
REMARK   91  A    between atoms: _232  and  _235
REMARK   92  A    between atoms: _235  and  _236
REMARK   93  A    between atoms: _241  and  _243
REMARK   94  A    between atoms: _243  and  _244
REMARK   95  A    between atoms: _243  and  _246
REMARK   96  A    between atoms: _246  and  _247
REMARK   97  A    between atoms: _253  and  _255
REMARK   98  A    between atoms: _255  and  _256
REMARK   99  A    between atoms: _258  and  _260
REMARK  100  A    between atoms: _260  and  _261
REMARK  101  A    between atoms: _260  and  _263
REMARK  102  A    between atoms: _266  and  _268
REMARK  103  A    between atoms: _268  and  _269
REMARK  104  A    between atoms: _268  and  _271
REMARK  105  A    between atoms: _271  and  _272
REMARK  106  A    between atoms: _275  and  _277
REMARK  107  A    between atoms: _277  and  _278
REMARK  108  A    between atoms: _277  and  _280
REMARK  109  A    between atoms: _280  and  _281
REMARK  110  A    between atoms: _284  and  _286
REMARK  111  A    between atoms: _286  and  _287
REMARK  112  A    between atoms: _286  and  _289
REMARK  113  A    between atoms: _292  and  _294
REMARK  114  A    between atoms: _294  and  _295
REMARK  115  A    between atoms: _294  and  _297
REMARK  116  A    between atoms: _300  and  _302
REMARK  117  A    between atoms: _302  and  _303
REMARK  118  A    between atoms: _302  and  _305
REMARK  119  A    between atoms: _305  and  _306
REMARK  120  A    between atoms: _309  and  _311
REMARK  121  A    between atoms: _311  and  _312
REMARK  122  A    between atoms: _311  and  _314
REMARK  123  A    between atoms: _314  and  _315
REMARK  124  A    between atoms: _318  and  _320
REMARK  125  A    between atoms: _320  and  _321
REMARK  126  A    between atoms: _320  and  _323
REMARK  127  A    between atoms: _323  and  _324
REMARK  128  A    between atoms: _330  and  _332
REMARK  129  A    between atoms: _332  and  _333
REMARK  130  A    between atoms: _332  and  _335
REMARK  131  A    between atoms: _335  and  _336
REMARK  132  A    between atoms: _342  and  _344
REMARK  133  A    between atoms: _344  and  _345
REMARK  134  A    between atoms: _347  and  _349
REMARK  135  A    between atoms: _349  and  _350
REMARK  136  A    between atoms: _349  and  _352
REMARK  137  A    between atoms: _352  and  _353
REMARK  138  A    between atoms: _353  and  _354
REMARK  139  A    between atoms: _357  and  _359
REMARK  140  A    between atoms: _359  and  _360
REMARK  141  A    between atoms: _359  and  _362
REMARK  142  A    between atoms: _362  and  _363
REMARK  143  A    between atoms: _363  and  _364
REMARK  144  A    between atoms: _364  and  _365
REMARK  145  A    between atoms: _365  and  _366
REMARK  146  A    between atoms: _370  and  _372
REMARK  147  A    between atoms: _372  and  _373
REMARK  148  A    between atoms: _372  and  _375
REMARK  149  A    between atoms: _375  and  _376
REMARK  150  A    between atoms: _379  and  _381
REMARK  151  A    between atoms: _381  and  _382
REMARK  152  A    between atoms: _381  and  _384
REMARK  153  A    between atoms: _384  and  _385
REMARK  154  A    between atoms: _390  and  _391
REMARK  155  A    between atoms: _393  and  _395
REMARK  156  A    between atoms: _395  and  _396
REMARK  157  A    between atoms: _395  and  _398
REMARK  158  A    between atoms: _398  and  _399
REMARK  159  A    between atoms: _399  and  _400
REMARK  160  A    between atoms: _405  and  _407
REMARK  161  A    between atoms: _407  and  _408
REMARK  162  A    between atoms: _407  and  _410
REMARK  163  A    between atoms: _410  and  _411
REMARK  164  A    between atoms: _414  and  _416
REMARK  165  A    between atoms: _416  and  _417
REMARK  166  A    between atoms: _416  and  _419
REMARK  167  A    between atoms: _419  and  _420
REMARK  168  A    between atoms: _423  and  _425
REMARK  169  A    between atoms: _425  and  _426
REMARK  170  A    between atoms: _425  and  _428
REMARK  171  A    between atoms: _431  and  _433
REMARK  172  A    between atoms: _433  and  _434
REMARK  173  A    between atoms: _436  and  _438
REMARK  174  A    between atoms: _438  and  _439
REMARK  175  A    between atoms: _438  and  _441
REMARK  176  A    between atoms: _445  and  _446
REMARK  177  A    between atoms: _451  and  _453
REMARK  178  A    between atoms: _453  and  _454
REMARK  179  A    between atoms: _453  and  _456
REMARK  180  A    between atoms: _456  and  _457
REMARK  181  A    between atoms: _460  and  _462
REMARK  182  A    between atoms: _462  and  _463
REMARK  183  A    between atoms: _462  and  _465
REMARK  184  A    between atoms: _468  and  _470
REMARK  185  A    between atoms: _470  and  _471
REMARK  186  A    between atoms: _470  and  _473
REMARK  187  A    between atoms: _473  and  _474
REMARK  188  A    between atoms: _474  and  _475
REMARK  189  A    between atoms: _475  and  _476
REMARK  190  A    between atoms: _485  and  _487
REMARK  191  A    between atoms: _487  and  _488
REMARK  192  A    between atoms: _487  and  _490
REMARK  193  A    between atoms: _490  and  _491
REMARK  194  A    between atoms: _491  and  _492
REMARK  195  A    between atoms: _495  and  _497
REMARK  196  A    between atoms: _497  and  _498
REMARK  197  A    between atoms: _497  and  _500
REMARK  198  A    between atoms: _500  and  _501
REMARK  199  A    between atoms: _504  and  _506
REMARK  200  A    between atoms: _506  and  _507
REMARK  201  A    between atoms: _510  and  _512
REMARK  202  A    between atoms: _512  and  _513
REMARK  203  A    between atoms: _512  and  _515
REMARK  204  A    between atoms: _515  and  _516
REMARK  205  A    between atoms: _516  and  _517
REMARK  206  A    between atoms: _519  and  _521
REMARK  207  A    between atoms: _521  and  _522
REMARK  208  A    between atoms: _521  and  _524
REMARK  209  A    between atoms: _524  and  _525
REMARK  210  A    between atoms: _527  and  _529
REMARK  211  A    between atoms: _529  and  _530
REMARK  212  A    between atoms: _529  and  _532
REMARK  213  A    between atoms: _532  and  _533
REMARK  214  A    between atoms: _535  and  _537
REMARK  215  A    between atoms: _537  and  _538
REMARK  216  A    between atoms: _537  and  _540
REMARK  217  A    between atoms: _540  and  _541
REMARK  218  A    between atoms: _541  and  _542
REMARK  219  A    between atoms: _542  and  _543
REMARK  220  A    between atoms: _552  and  _554
REMARK  221  A    between atoms: _554  and  _555
REMARK  222  A    between atoms: _554  and  _557
REMARK  223  A    between atoms: _557  and  _558
REMARK  224  A    between atoms: _563  and  _565
REMARK  225  A    between atoms: _565  and  _566
REMARK  226  A    between atoms: _565  and  _568
REMARK  227  A    between atoms: _568  and  _569
REMARK  228  A    between atoms: _572  and  _574
REMARK  229  A    between atoms: _574  and  _575
REMARK  230  A    between atoms: _574  and  _577
REMARK  231  A    between atoms: _577  and  _578
REMARK  232  A    between atoms: _581  and  _583
REMARK  233  A    between atoms: _583  and  _584
REMARK  234  A    between atoms: _583  and  _586
REMARK  235  A    between atoms: _586  and  _587
REMARK                            x       y       z     vdW  Elec       q    Type
REMARK                         _______ _______ _______ _____ _____    ______ ____
ROOT
ATOM      1  O   HOH     1       8.992   8.938  -8.351  0.00  0.00    +0.000 OA
ENDROOT
TORSDOF 0
REMARK  Name = ../refined-set-2016/3ioe/3ioe_pocket.pdb
REMARK  235 active torsions:
REMARK  status: ('A' for Active; 'I' for Inactive)
REMARK    1  A    between atoms: _1  and  _3
REMARK    2  A    between atoms: _3  and  _4
REMARK    3  A    between atoms: _3  and  _6
REMARK    4  A    between atoms: _10  and  _11
REMARK    5  A    between atoms: _16  and  _18
REMARK    6  A    between atoms: _18  and  _19
REMARK    7  A    between atoms: _18  and  _21
REMARK    8  A    between atoms: _21  and  _22
REMARK    9  A    between atoms: _25  and  _27
REMARK   10  A    between atoms: _27  and  _28
REMARK   11  A    between atoms: _27  and  _30
REMARK   12  A    between atoms: _30  and  _31
REMARK   13  A    between atoms: _31  and  _32
REMARK   14  A    between atoms: _34  and  _36
REMARK   15  A    between atoms: _36  and  _37
REMARK   16  A    between atoms: _39  and  _41
REMARK   17  A    between atoms: _41  and  _42
REMARK   18  A    between atoms: _45  and  _47
REMARK   19  A    between atoms: _47  and  _48
REMARK   20  A    between atoms: _47  and  _50
REMARK   21  A    between atoms: _50  and  _51
REMARK   22  A    between atoms: _54  and  _56
REMARK   23  A    between atoms: _56  and  _57
REMARK   24  A    between atoms: _56  and  _59
REMARK   25  A    between atoms: _59  and  _60
REMARK   26  A    between atoms: _65  and  _67
REMARK   27  A    between atoms: _67  and  _68
REMARK   28  A    between atoms: _67  and  _70
REMARK   29  A    between atoms: _70  and  _71
REMARK   30  A    between atoms: _71  and  _72
REMARK   31  A    between atoms: _75  and  _77
REMARK   32  A    between atoms: _77  and  _78
REMARK   33  A    between atoms: _80  and  _82
REMARK   34  A    between atoms: _82  and  _83
REMARK   35  A    between atoms: _82  and  _85
REMARK   36  A    between atoms: _85  and  _86
REMARK   37  A    between atoms: _91  and  _93
REMARK   38  A    between atoms: _93  and  _94
REMARK   39  A    between atoms: _93  and  _96
REMARK   40  A    between atoms: _96  and  _97
REMARK   41  A    between atoms: _100  and  _102
REMARK   42  A    between atoms: _102  and  _103
REMARK   43  A    between atoms: _106  and  _108
REMARK   44  A    between atoms: _108  and  _109
REMARK   45  A    between atoms: _108  and  _111
REMARK   46  A    between atoms: _111  and  _112
REMARK   47  A    between atoms: _115  and  _117
REMARK   48  A    between atoms: _117  and  _118
REMARK   49  A    between atoms: _117  and  _120
REMARK   50  A    between atoms: _123  and  _125
REMARK   51  A    between atoms: _125  and  _126
REMARK   52  A    between atoms: _125  and  _128
REMARK   53  A    between atoms: _128  and  _129
REMARK   54  A    between atoms: _131  and  _133
REMARK   55  A    between atoms: _133  and  _134
REMARK   56  A    between atoms: _133  and  _136
REMARK   57  A    between atoms: _136  and  _137
REMARK   58  A    between atoms: _140  and  _142
REMARK   59  A    between atoms: _142  and  _143
REMARK   60  A    between atoms: _142  and  _145
REMARK   61  A    between atoms: _145  and  _146
REMARK   62  A    between atoms: _152  and  _154
REMARK   63  A    between atoms: _154  and  _155
REMARK   64  A    between atoms: _154  and  _157
REMARK   65  A    between atoms: _160  and  _162
REMARK   66  A    between atoms: _162  and  _163
REMARK   67  A    between atoms: _162  and  _165
REMARK   68  A    between atoms: _165  and  _166
REMARK   69  A    between atoms: _172  and  _173
REMARK   70  A    between atoms: _178  and  _180
REMARK   71  A    between atoms: _180  and  _181
REMARK   72  A    between atoms: _180  and  _183
REMARK   73  A    between atoms: _183  and  _184
REMARK   74  A    between atoms: _184  and  _185
REMARK   75  A    between atoms: _190  and  _192
REMARK   76  A    between atoms: _192  and  _193
REMARK   77  A    between atoms: _192  and  _195
REMARK   78  A    between atoms: _195  and  _196
REMARK   79  A    between atoms: _202  and  _204
REMARK   80  A    between atoms: _204  and  _205
REMARK   81  A    between atoms: _204  and  _207
REMARK   82  A    between atoms: _207  and  _208
REMARK   83  A    between atoms: _213  and  _214
REMARK   84  A    between atoms: _216  and  _218
REMARK   85  A    between atoms: _218  and  _219
REMARK   86  A    between atoms: _218  and  _221
REMARK   87  A    between atoms: _221  and  _222
REMARK   88  A    between atoms: _227  and  _228
REMARK   89  A    between atoms: _230  and  _232
REMARK   90  A    between atoms: _232  and  _233
REMARK   91  A    between atoms: _232  and  _235
REMARK   92  A    between atoms: _235  and  _236
REMARK   93  A    between atoms: _241  and  _243
REMARK   94  A    between atoms: _243  and  _244
REMARK   95  A    between atoms: _243  and  _246
REMARK   96  A    between atoms: _246  and  _247
REMARK   97  A    between atoms: _253  and  _255
REMARK   98  A    between atoms: _255  and  _256
REMARK   99  A    between atoms: _258  and  _260
REMARK  100  A    between atoms: _260  and  _261
REMARK  101  A    between atoms: _260  and  _263
REMARK  102  A    between atoms: _266  and  _268
REMARK  103  A    between atoms: _268  and  _269
REMARK  104  A    between atoms: _268  and  _271
REMARK  105  A    between atoms: _271  and  _272
REMARK  106  A    between atoms: _275  and  _277
REMARK  107  A    between atoms: _277  and  _278
REMARK  108  A    between atoms: _277  and  _280
REMARK  109  A    between atoms: _280  and  _281
REMARK  110  A    between atoms: _284  and  _286
REMARK  111  A    between atoms: _286  and  _287
REMARK  112  A    between atoms: _286  and  _289
REMARK  113  A    between atoms: _292  and  _294
REMARK  114  A    between atoms: _294  and  _295
REMARK  115  A    between atoms: _294  and  _297
REMARK  116  A    between atoms: _300  and  _302
REMARK  117  A    between atoms: _302  and  _303
REMARK  118  A    between atoms: _302  and  _305
REMARK  119  A    between atoms: _305  and  _306
REMARK  120  A    between atoms: _309  and  _311
REMARK  121  A    between atoms: _311  and  _312
REMARK  122  A    between atoms: _311  and  _314
REMARK  123  A    between atoms: _314  and  _315
REMARK  124  A    between atoms: _318  and  _320
REMARK  125  A    between atoms: _320  and  _321
REMARK  126  A    between atoms: _320  and  _323
REMARK  127  A    between atoms: _323  and  _324
REMARK  128  A    between atoms: _330  and  _332
REMARK  129  A    between atoms: _332  and  _333
REMARK  130  A    between atoms: _332  and  _335
REMARK  131  A    between atoms: _335  and  _336
REMARK  132  A    between atoms: _342  and  _344
REMARK  133  A    between atoms: _344  and  _345
REMARK  134  A    between atoms: _347  and  _349
REMARK  135  A    between atoms: _349  and  _350
REMARK  136  A    between atoms: _349  and  _352
REMARK  137  A    between atoms: _352  and  _353
REMARK  138  A    between atoms: _353  and  _354
REMARK  139  A    between atoms: _357  and  _359
REMARK  140  A    between atoms: _359  and  _360
REMARK  141  A    between atoms: _359  and  _362
REMARK  142  A    between atoms: _362  and  _363
REMARK  143  A    between atoms: _363  and  _364
REMARK  144  A    between atoms: _364  and  _365
REMARK  145  A    between atoms: _365  and  _366
REMARK  146  A    between atoms: _370  and  _372
REMARK  147  A    between atoms: _372  and  _373
REMARK  148  A    between atoms: _372  and  _375
REMARK  149  A    between atoms: _375  and  _376
REMARK  150  A    between atoms: _379  and  _381
REMARK  151  A    between atoms: _381  and  _382
REMARK  152  A    between atoms: _381  and  _384
REMARK  153  A    between atoms: _384  and  _385
REMARK  154  A    between atoms: _390  and  _391
REMARK  155  A    between atoms: _393  and  _395
REMARK  156  A    between atoms: _395  and  _396
REMARK  157  A    between atoms: _395  and  _398
REMARK  158  A    between atoms: _398  and  _399
REMARK  159  A    between atoms: _399  and  _400
REMARK  160  A    between atoms: _405  and  _407
REMARK  161  A    between atoms: _407  and  _408
REMARK  162  A    between atoms: _407  and  _410
REMARK  163  A    between atoms: _410  and  _411
REMARK  164  A    between atoms: _414  and  _416
REMARK  165  A    between atoms: _416  and  _417
REMARK  166  A    between atoms: _416  and  _419
REMARK  167  A    between atoms: _419  and  _420
REMARK  168  A    between atoms: _423  and  _425
REMARK  169  A    between atoms: _425  and  _426
REMARK  170  A    between atoms: _425  and  _428
REMARK  171  A    between atoms: _431  and  _433
REMARK  172  A    between atoms: _433  and  _434
REMARK  173  A    between atoms: _436  and  _438
REMARK  174  A    between atoms: _438  and  _439
REMARK  175  A    between atoms: _438  and  _441
REMARK  176  A    between atoms: _445  and  _446
REMARK  177  A    between atoms: _451  and  _453
REMARK  178  A    between atoms: _453  and  _454
REMARK  179  A    between atoms: _453  and  _456
REMARK  180  A    between atoms: _456  and  _457
REMARK  181  A    between atoms: _460  and  _462
REMARK  182  A    between atoms: _462  and  _463
REMARK  183  A    between atoms: _462  and  _465
REMARK  184  A    between atoms: _468  and  _470
REMARK  185  A    between atoms: _470  and  _471
REMARK  186  A    between atoms: _470  and  _473
REMARK  187  A    between atoms: _473  and  _474
REMARK  188  A    between atoms: _474  and  _475
REMARK  189  A    between atoms: _475  and  _476
REMARK  190  A    between atoms: _485  and  _487
REMARK  191  A    between atoms: _487  and  _488
REMARK  192  A    between atoms: _487  and  _490
REMARK  193  A    between atoms: _490  and  _491
REMARK  194  A    between atoms: _491  and  _492
REMARK  195  A    between atoms: _495  and  _497
REMARK  196  A    between atoms: _497  and  _498
REMARK  197  A    between atoms: _497  and  _500
REMARK  198  A    between atoms: _500  and  _501
REMARK  199  A    between atoms: _504  and  _506
REMARK  200  A    between atoms: _506  and  _507
REMARK  201  A    between atoms: _510  and  _512
REMARK  202  A    between atoms: _512  and  _513
REMARK  203  A    between atoms: _512  and  _515
REMARK  204  A    between atoms: _515  and  _516
REMARK  205  A    between atoms: _516  and  _517
REMARK  206  A    between atoms: _519  and  _521
REMARK  207  A    between atoms: _521  and  _522
REMARK  208  A    between atoms: _521  and  _524
REMARK  209  A    between atoms: _524  and  _525
REMARK  210  A    between atoms: _527  and  _529
REMARK  211  A    between atoms: _529  and  _530
REMARK  212  A    between atoms: _529  and  _532
REMARK  213  A    between atoms: _532  and  _533
REMARK  214  A    between atoms: _535  and  _537
REMARK  215  A    between atoms: _537  and  _538
REMARK  216  A    between atoms: _537  and  _540
REMARK  217  A    between atoms: _540  and  _541
REMARK  218  A    between atoms: _541  and  _542
REMARK  219  A    between atoms: _542  and  _543
REMARK  220  A    between atoms: _552  and  _554
REMARK  221  A    between atoms: _554  and  _555
REMARK  222  A    between atoms: _554  and  _557
REMARK  223  A    between atoms: _557  and  _558
REMARK  224  A    between atoms: _563  and  _565
REMARK  225  A    between atoms: _565  and  _566
REMARK  226  A    between atoms: _565  and  _568
REMARK  227  A    between atoms: _568  and  _569
REMARK  228  A    between atoms: _572  and  _574
REMARK  229  A    between atoms: _574  and  _575
REMARK  230  A    between atoms: _574  and  _577
REMARK  231  A    between atoms: _577  and  _578
REMARK  232  A    between atoms: _581  and  _583
REMARK  233  A    between atoms: _583  and  _584
REMARK  234  A    between atoms: _583  and  _586
REMARK  235  A    between atoms: _586  and  _587
REMARK                            x       y       z     vdW  Elec       q    Type
REMARK                         _______ _______ _______ _____ _____    ______ ____
ROOT
ATOM      1  O   HOH     1      20.080   3.859   2.888  0.00  0.00    +0.000 OA
ENDROOT
TORSDOF 0
REMARK  Name = ../refined-set-2016/3ioe/3ioe_pocket.pdb
REMARK  235 active torsions:
REMARK  status: ('A' for Active; 'I' for Inactive)
REMARK    1  A    between atoms: _1  and  _3
REMARK    2  A    between atoms: _3  and  _4
REMARK    3  A    between atoms: _3  and  _6
REMARK    4  A    between atoms: _10  and  _11
REMARK    5  A    between atoms: _16  and  _18
REMARK    6  A    between atoms: _18  and  _19
REMARK    7  A    between atoms: _18  and  _21
REMARK    8  A    between atoms: _21  and  _22
REMARK    9  A    between atoms: _25  and  _27
REMARK   10  A    between atoms: _27  and  _28
REMARK   11  A    between atoms: _27  and  _30
REMARK   12  A    between atoms: _30  and  _31
REMARK   13  A    between atoms: _31  and  _32
REMARK   14  A    between atoms: _34  and  _36
REMARK   15  A    between atoms: _36  and  _37
REMARK   16  A    between atoms: _39  and  _41
REMARK   17  A    between atoms: _41  and  _42
REMARK   18  A    between atoms: _45  and  _47
REMARK   19  A    between atoms: _47  and  _48
REMARK   20  A    between atoms: _47  and  _50
REMARK   21  A    between atoms: _50  and  _51
REMARK   22  A    between atoms: _54  and  _56
REMARK   23  A    between atoms: _56  and  _57
REMARK   24  A    between atoms: _56  and  _59
REMARK   25  A    between atoms: _59  and  _60
REMARK   26  A    between atoms: _65  and  _67
REMARK   27  A    between atoms: _67  and  _68
REMARK   28  A    between atoms: _67  and  _70
REMARK   29  A    between atoms: _70  and  _71
REMARK   30  A    between atoms: _71  and  _72
REMARK   31  A    between atoms: _75  and  _77
REMARK   32  A    between atoms: _77  and  _78
REMARK   33  A    between atoms: _80  and  _82
REMARK   34  A    between atoms: _82  and  _83
REMARK   35  A    between atoms: _82  and  _85
REMARK   36  A    between atoms: _85  and  _86
REMARK   37  A    between atoms: _91  and  _93
REMARK   38  A    between atoms: _93  and  _94
REMARK   39  A    between atoms: _93  and  _96
REMARK   40  A    between atoms: _96  and  _97
REMARK   41  A    between atoms: _100  and  _102
REMARK   42  A    between atoms: _102  and  _103
REMARK   43  A    between atoms: _106  and  _108
REMARK   44  A    between atoms: _108  and  _109
REMARK   45  A    between atoms: _108  and  _111
REMARK   46  A    between atoms: _111  and  _112
REMARK   47  A    between atoms: _115  and  _117
REMARK   48  A    between atoms: _117  and  _118
REMARK   49  A    between atoms: _117  and  _120
REMARK   50  A    between atoms: _123  and  _125
REMARK   51  A    between atoms: _125  and  _126
REMARK   52  A    between atoms: _125  and  _128
REMARK   53  A    between atoms: _128  and  _129
REMARK   54  A    between atoms: _131  and  _133
REMARK   55  A    between atoms: _133  and  _134
REMARK   56  A    between atoms: _133  and  _136
REMARK   57  A    between atoms: _136  and  _137
REMARK   58  A    between atoms: _140  and  _142
REMARK   59  A    between atoms: _142  and  _143
REMARK   60  A    between atoms: _142  and  _145
REMARK   61  A    between atoms: _145  and  _146
REMARK   62  A    between atoms: _152  and  _154
REMARK   63  A    between atoms: _154  and  _155
REMARK   64  A    between atoms: _154  and  _157
REMARK   65  A    between atoms: _160  and  _162
REMARK   66  A    between atoms: _162  and  _163
REMARK   67  A    between atoms: _162  and  _165
REMARK   68  A    between atoms: _165  and  _166
REMARK   69  A    between atoms: _172  and  _173
REMARK   70  A    between atoms: _178  and  _180
REMARK   71  A    between atoms: _180  and  _181
REMARK   72  A    between atoms: _180  and  _183
REMARK   73  A    between atoms: _183  and  _184
REMARK   74  A    between atoms: _184  and  _185
REMARK   75  A    between atoms: _190  and  _192
REMARK   76  A    between atoms: _192  and  _193
REMARK   77  A    between atoms: _192  and  _195
REMARK   78  A    between atoms: _195  and  _196
REMARK   79  A    between atoms: _202  and  _204
REMARK   80  A    between atoms: _204  and  _205
REMARK   81  A    between atoms: _204  and  _207
REMARK   82  A    between atoms: _207  and  _208
REMARK   83  A    between atoms: _213  and  _214
REMARK   84  A    between atoms: _216  and  _218
REMARK   85  A    between atoms: _218  and  _219
REMARK   86  A    between atoms: _218  and  _221
REMARK   87  A    between atoms: _221  and  _222
REMARK   88  A    between atoms: _227  and  _228
REMARK   89  A    between atoms: _230  and  _232
REMARK   90  A    between atoms: _232  and  _233
REMARK   91  A    between atoms: _232  and  _235
REMARK   92  A    between atoms: _235  and  _236
REMARK   93  A    between atoms: _241  and  _243
REMARK   94  A    between atoms: _243  and  _244
REMARK   95  A    between atoms: _243  and  _246
REMARK   96  A    between atoms: _246  and  _247
REMARK   97  A    between atoms: _253  and  _255
REMARK   98  A    between atoms: _255  and  _256
REMARK   99  A    between atoms: _258  and  _260
REMARK  100  A    between atoms: _260  and  _261
REMARK  101  A    between atoms: _260  and  _263
REMARK  102  A    between atoms: _266  and  _268
REMARK  103  A    between atoms: _268  and  _269
REMARK  104  A    between atoms: _268  and  _271
REMARK  105  A    between atoms: _271  and  _272
REMARK  106  A    between atoms: _275  and  _277
REMARK  107  A    between atoms: _277  and  _278
REMARK  108  A    between atoms: _277  and  _280
REMARK  109  A    between atoms: _280  and  _281
REMARK  110  A    between atoms: _284  and  _286
REMARK  111  A    between atoms: _286  and  _287
REMARK  112  A    between atoms: _286  and  _289
REMARK  113  A    between atoms: _292  and  _294
REMARK  114  A    between atoms: _294  and  _295
REMARK  115  A    between atoms: _294  and  _297
REMARK  116  A    between atoms: _300  and  _302
REMARK  117  A    between atoms: _302  and  _303
REMARK  118  A    between atoms: _302  and  _305
REMARK  119  A    between atoms: _305  and  _306
REMARK  120  A    between atoms: _309  and  _311
REMARK  121  A    between atoms: _311  and  _312
REMARK  122  A    between atoms: _311  and  _314
REMARK  123  A    between atoms: _314  and  _315
REMARK  124  A    between atoms: _318  and  _320
REMARK  125  A    between atoms: _320  and  _321
REMARK  126  A    between atoms: _320  and  _323
REMARK  127  A    between atoms: _323  and  _324
REMARK  128  A    between atoms: _330  and  _332
REMARK  129  A    between atoms: _332  and  _333
REMARK  130  A    between atoms: _332  and  _335
REMARK  131  A    between atoms: _335  and  _336
REMARK  132  A    between atoms: _342  and  _344
REMARK  133  A    between atoms: _344  and  _345
REMARK  134  A    between atoms: _347  and  _349
REMARK  135  A    between atoms: _349  and  _350
REMARK  136  A    between atoms: _349  and  _352
REMARK  137  A    between atoms: _352  and  _353
REMARK  138  A    between atoms: _353  and  _354
REMARK  139  A    between atoms: _357  and  _359
REMARK  140  A    between atoms: _359  and  _360
REMARK  141  A    between atoms: _359  and  _362
REMARK  142  A    between atoms: _362  and  _363
REMARK  143  A    between atoms: _363  and  _364
REMARK  144  A    between atoms: _364  and  _365
REMARK  145  A    between atoms: _365  and  _366
REMARK  146  A    between atoms: _370  and  _372
REMARK  147  A    between atoms: _372  and  _373
REMARK  148  A    between atoms: _372  and  _375
REMARK  149  A    between atoms: _375  and  _376
REMARK  150  A    between atoms: _379  and  _381
REMARK  151  A    between atoms: _381  and  _382
REMARK  152  A    between atoms: _381  and  _384
REMARK  153  A    between atoms: _384  and  _385
REMARK  154  A    between atoms: _390  and  _391
REMARK  155  A    between atoms: _393  and  _395
REMARK  156  A    between atoms: _395  and  _396
REMARK  157  A    between atoms: _395  and  _398
REMARK  158  A    between atoms: _398  and  _399
REMARK  159  A    between atoms: _399  and  _400
REMARK  160  A    between atoms: _405  and  _407
REMARK  161  A    between atoms: _407  and  _408
REMARK  162  A    between atoms: _407  and  _410
REMARK  163  A    between atoms: _410  and  _411
REMARK  164  A    between atoms: _414  and  _416
REMARK  165  A    between atoms: _416  and  _417
REMARK  166  A    between atoms: _416  and  _419
REMARK  167  A    between atoms: _419  and  _420
REMARK  168  A    between atoms: _423  and  _425
REMARK  169  A    between atoms: _425  and  _426
REMARK  170  A    between atoms: _425  and  _428
REMARK  171  A    between atoms: _431  and  _433
REMARK  172  A    between atoms: _433  and  _434
REMARK  173  A    between atoms: _436  and  _438
REMARK  174  A    between atoms: _438  and  _439
REMARK  175  A    between atoms: _438  and  _441
REMARK  176  A    between atoms: _445  and  _446
REMARK  177  A    between atoms: _451  and  _453
REMARK  178  A    between atoms: _453  and  _454
REMARK  179  A    between atoms: _453  and  _456
REMARK  180  A    between atoms: _456  and  _457
REMARK  181  A    between atoms: _460  and  _462
REMARK  182  A    between atoms: _462  and  _463
REMARK  183  A    between atoms: _462  and  _465
REMARK  184  A    between atoms: _468  and  _470
REMARK  185  A    between atoms: _470  and  _471
REMARK  186  A    between atoms: _470  and  _473
REMARK  187  A    between atoms: _473  and  _474
REMARK  188  A    between atoms: _474  and  _475
REMARK  189  A    between atoms: _475  and  _476
REMARK  190  A    between atoms: _485  and  _487
REMARK  191  A    between atoms: _487  and  _488
REMARK  192  A    between atoms: _487  and  _490
REMARK  193  A    between atoms: _490  and  _491
REMARK  194  A    between atoms: _491  and  _492
REMARK  195  A    between atoms: _495  and  _497
REMARK  196  A    between atoms: _497  and  _498
REMARK  197  A    between atoms: _497  and  _500
REMARK  198  A    between atoms: _500  and  _501
REMARK  199  A    between atoms: _504  and  _506
REMARK  200  A    between atoms: _506  and  _507
REMARK  201  A    between atoms: _510  and  _512
REMARK  202  A    between atoms: _512  and  _513
REMARK  203  A    between atoms: _512  and  _515
REMARK  204  A    between atoms: _515  and  _516
REMARK  205  A    between atoms: _516  and  _517
REMARK  206  A    between atoms: _519  and  _521
REMARK  207  A    between atoms: _521  and  _522
REMARK  208  A    between atoms: _521  and  _524
REMARK  209  A    between atoms: _524  and  _525
REMARK  210  A    between atoms: _527  and  _529
REMARK  211  A    between atoms: _529  and  _530
REMARK  212  A    between atoms: _529  and  _532
REMARK  213  A    between atoms: _532  and  _533
REMARK  214  A    between atoms: _535  and  _537
REMARK  215  A    between atoms: _537  and  _538
REMARK  216  A    between atoms: _537  and  _540
REMARK  217  A    between atoms: _540  and  _541
REMARK  218  A    between atoms: _541  and  _542
REMARK  219  A    between atoms: _542  and  _543
REMARK  220  A    between atoms: _552  and  _554
REMARK  221  A    between atoms: _554  and  _555
REMARK  222  A    between atoms: _554  and  _557
REMARK  223  A    between atoms: _557  and  _558
REMARK  224  A    between atoms: _563  and  _565
REMARK  225  A    between atoms: _565  and  _566
REMARK  226  A    between atoms: _565  and  _568
REMARK  227  A    between atoms: _568  and  _569
REMARK  228  A    between atoms: _572  and  _574
REMARK  229  A    between atoms: _574  and  _575
REMARK  230  A    between atoms: _574  and  _577
REMARK  231  A    between atoms: _577  and  _578
REMARK  232  A    between atoms: _581  and  _583
REMARK  233  A    between atoms: _583  and  _584
REMARK  234  A    between atoms: _583  and  _586
REMARK  235  A    between atoms: _586  and  _587
REMARK                            x       y       z     vdW  Elec       q    Type
REMARK                         _______ _______ _______ _____ _____    ______ ____
ROOT
ATOM      1  O   HOH     1      19.410   4.820   5.722  0.00  0.00    +0.000 OA
ENDROOT
TORSDOF 0
REMARK  Name = ../refined-set-2016/3ioe/3ioe_pocket.pdb
REMARK  235 active torsions:
REMARK  status: ('A' for Active; 'I' for Inactive)
REMARK    1  A    between atoms: _1  and  _3
REMARK    2  A    between atoms: _3  and  _4
REMARK    3  A    between atoms: _3  and  _6
REMARK    4  A    between atoms: _10  and  _11
REMARK    5  A    between atoms: _16  and  _18
REMARK    6  A    between atoms: _18  and  _19
REMARK    7  A    between atoms: _18  and  _21
REMARK    8  A    between atoms: _21  and  _22
REMARK    9  A    between atoms: _25  and  _27
REMARK   10  A    between atoms: _27  and  _28
REMARK   11  A    between atoms: _27  and  _30
REMARK   12  A    between atoms: _30  and  _31
REMARK   13  A    between atoms: _31  and  _32
REMARK   14  A    between atoms: _34  and  _36
REMARK   15  A    between atoms: _36  and  _37
REMARK   16  A    between atoms: _39  and  _41
REMARK   17  A    between atoms: _41  and  _42
REMARK   18  A    between atoms: _45  and  _47
REMARK   19  A    between atoms: _47  and  _48
REMARK   20  A    between atoms: _47  and  _50
REMARK   21  A    between atoms: _50  and  _51
REMARK   22  A    between atoms: _54  and  _56
REMARK   23  A    between atoms: _56  and  _57
REMARK   24  A    between atoms: _56  and  _59
REMARK   25  A    between atoms: _59  and  _60
REMARK   26  A    between atoms: _65  and  _67
REMARK   27  A    between atoms: _67  and  _68
REMARK   28  A    between atoms: _67  and  _70
REMARK   29  A    between atoms: _70  and  _71
REMARK   30  A    between atoms: _71  and  _72
REMARK   31  A    between atoms: _75  and  _77
REMARK   32  A    between atoms: _77  and  _78
REMARK   33  A    between atoms: _80  and  _82
REMARK   34  A    between atoms: _82  and  _83
REMARK   35  A    between atoms: _82  and  _85
REMARK   36  A    between atoms: _85  and  _86
REMARK   37  A    between atoms: _91  and  _93
REMARK   38  A    between atoms: _93  and  _94
REMARK   39  A    between atoms: _93  and  _96
REMARK   40  A    between atoms: _96  and  _97
REMARK   41  A    between atoms: _100  and  _102
REMARK   42  A    between atoms: _102  and  _103
REMARK   43  A    between atoms: _106  and  _108
REMARK   44  A    between atoms: _108  and  _109
REMARK   45  A    between atoms: _108  and  _111
REMARK   46  A    between atoms: _111  and  _112
REMARK   47  A    between atoms: _115  and  _117
REMARK   48  A    between atoms: _117  and  _118
REMARK   49  A    between atoms: _117  and  _120
REMARK   50  A    between atoms: _123  and  _125
REMARK   51  A    between atoms: _125  and  _126
REMARK   52  A    between atoms: _125  and  _128
REMARK   53  A    between atoms: _128  and  _129
REMARK   54  A    between atoms: _131  and  _133
REMARK   55  A    between atoms: _133  and  _134
REMARK   56  A    between atoms: _133  and  _136
REMARK   57  A    between atoms: _136  and  _137
REMARK   58  A    between atoms: _140  and  _142
REMARK   59  A    between atoms: _142  and  _143
REMARK   60  A    between atoms: _142  and  _145
REMARK   61  A    between atoms: _145  and  _146
REMARK   62  A    between atoms: _152  and  _154
REMARK   63  A    between atoms: _154  and  _155
REMARK   64  A    between atoms: _154  and  _157
REMARK   65  A    between atoms: _160  and  _162
REMARK   66  A    between atoms: _162  and  _163
REMARK   67  A    between atoms: _162  and  _165
REMARK   68  A    between atoms: _165  and  _166
REMARK   69  A    between atoms: _172  and  _173
REMARK   70  A    between atoms: _178  and  _180
REMARK   71  A    between atoms: _180  and  _181
REMARK   72  A    between atoms: _180  and  _183
REMARK   73  A    between atoms: _183  and  _184
REMARK   74  A    between atoms: _184  and  _185
REMARK   75  A    between atoms: _190  and  _192
REMARK   76  A    between atoms: _192  and  _193
REMARK   77  A    between atoms: _192  and  _195
REMARK   78  A    between atoms: _195  and  _196
REMARK   79  A    between atoms: _202  and  _204
REMARK   80  A    between atoms: _204  and  _205
REMARK   81  A    between atoms: _204  and  _207
REMARK   82  A    between atoms: _207  and  _208
REMARK   83  A    between atoms: _213  and  _214
REMARK   84  A    between atoms: _216  and  _218
REMARK   85  A    between atoms: _218  and  _219
REMARK   86  A    between atoms: _218  and  _221
REMARK   87  A    between atoms: _221  and  _222
REMARK   88  A    between atoms: _227  and  _228
REMARK   89  A    between atoms: _230  and  _232
REMARK   90  A    between atoms: _232  and  _233
REMARK   91  A    between atoms: _232  and  _235
REMARK   92  A    between atoms: _235  and  _236
REMARK   93  A    between atoms: _241  and  _243
REMARK   94  A    between atoms: _243  and  _244
REMARK   95  A    between atoms: _243  and  _246
REMARK   96  A    between atoms: _246  and  _247
REMARK   97  A    between atoms: _253  and  _255
REMARK   98  A    between atoms: _255  and  _256
REMARK   99  A    between atoms: _258  and  _260
REMARK  100  A    between atoms: _260  and  _261
REMARK  101  A    between atoms: _260  and  _263
REMARK  102  A    between atoms: _266  and  _268
REMARK  103  A    between atoms: _268  and  _269
REMARK  104  A    between atoms: _268  and  _271
REMARK  105  A    between atoms: _271  and  _272
REMARK  106  A    between atoms: _275  and  _277
REMARK  107  A    between atoms: _277  and  _278
REMARK  108  A    between atoms: _277  and  _280
REMARK  109  A    between atoms: _280  and  _281
REMARK  110  A    between atoms: _284  and  _286
REMARK  111  A    between atoms: _286  and  _287
REMARK  112  A    between atoms: _286  and  _289
REMARK  113  A    between atoms: _292  and  _294
REMARK  114  A    between atoms: _294  and  _295
REMARK  115  A    between atoms: _294  and  _297
REMARK  116  A    between atoms: _300  and  _302
REMARK  117  A    between atoms: _302  and  _303
REMARK  118  A    between atoms: _302  and  _305
REMARK  119  A    between atoms: _305  and  _306
REMARK  120  A    between atoms: _309  and  _311
REMARK  121  A    between atoms: _311  and  _312
REMARK  122  A    between atoms: _311  and  _314
REMARK  123  A    between atoms: _314  and  _315
REMARK  124  A    between atoms: _318  and  _320
REMARK  125  A    between atoms: _320  and  _321
REMARK  126  A    between atoms: _320  and  _323
REMARK  127  A    between atoms: _323  and  _324
REMARK  128  A    between atoms: _330  and  _332
REMARK  129  A    between atoms: _332  and  _333
REMARK  130  A    between atoms: _332  and  _335
REMARK  131  A    between atoms: _335  and  _336
REMARK  132  A    between atoms: _342  and  _344
REMARK  133  A    between atoms: _344  and  _345
REMARK  134  A    between atoms: _347  and  _349
REMARK  135  A    between atoms: _349  and  _350
REMARK  136  A    between atoms: _349  and  _352
REMARK  137  A    between atoms: _352  and  _353
REMARK  138  A    between atoms: _353  and  _354
REMARK  139  A    between atoms: _357  and  _359
REMARK  140  A    between atoms: _359  and  _360
REMARK  141  A    between atoms: _359  and  _362
REMARK  142  A    between atoms: _362  and  _363
REMARK  143  A    between atoms: _363  and  _364
REMARK  144  A    between atoms: _364  and  _365
REMARK  145  A    between atoms: _365  and  _366
REMARK  146  A    between atoms: _370  and  _372
REMARK  147  A    between atoms: _372  and  _373
REMARK  148  A    between atoms: _372  and  _375
REMARK  149  A    between atoms: _375  and  _376
REMARK  150  A    between atoms: _379  and  _381
REMARK  151  A    between atoms: _381  and  _382
REMARK  152  A    between atoms: _381  and  _384
REMARK  153  A    between atoms: _384  and  _385
REMARK  154  A    between atoms: _390  and  _391
REMARK  155  A    between atoms: _393  and  _395
REMARK  156  A    between atoms: _395  and  _396
REMARK  157  A    between atoms: _395  and  _398
REMARK  158  A    between atoms: _398  and  _399
REMARK  159  A    between atoms: _399  and  _400
REMARK  160  A    between atoms: _405  and  _407
REMARK  161  A    between atoms: _407  and  _408
REMARK  162  A    between atoms: _407  and  _410
REMARK  163  A    between atoms: _410  and  _411
REMARK  164  A    between atoms: _414  and  _416
REMARK  165  A    between atoms: _416  and  _417
REMARK  166  A    between atoms: _416  and  _419
REMARK  167  A    between atoms: _419  and  _420
REMARK  168  A    between atoms: _423  and  _425
REMARK  169  A    between atoms: _425  and  _426
REMARK  170  A    between atoms: _425  and  _428
REMARK  171  A    between atoms: _431  and  _433
REMARK  172  A    between atoms: _433  and  _434
REMARK  173  A    between atoms: _436  and  _438
REMARK  174  A    between atoms: _438  and  _439
REMARK  175  A    between atoms: _438  and  _441
REMARK  176  A    between atoms: _445  and  _446
REMARK  177  A    between atoms: _451  and  _453
REMARK  178  A    between atoms: _453  and  _454
REMARK  179  A    between atoms: _453  and  _456
REMARK  180  A    between atoms: _456  and  _457
REMARK  181  A    between atoms: _460  and  _462
REMARK  182  A    between atoms: _462  and  _463
REMARK  183  A    between atoms: _462  and  _465
REMARK  184  A    between atoms: _468  and  _470
REMARK  185  A    between atoms: _470  and  _471
REMARK  186  A    between atoms: _470  and  _473
REMARK  187  A    between atoms: _473  and  _474
REMARK  188  A    between atoms: _474  and  _475
REMARK  189  A    between atoms: _475  and  _476
REMARK  190  A    between atoms: _485  and  _487
REMARK  191  A    between atoms: _487  and  _488
REMARK  192  A    between atoms: _487  and  _490
REMARK  193  A    between atoms: _490  and  _491
REMARK  194  A    between atoms: _491  and  _492
REMARK  195  A    between atoms: _495  and  _497
REMARK  196  A    between atoms: _497  and  _498
REMARK  197  A    between atoms: _497  and  _500
REMARK  198  A    between atoms: _500  and  _501
REMARK  199  A    between atoms: _504  and  _506
REMARK  200  A    between atoms: _506  and  _507
REMARK  201  A    between atoms: _510  and  _512
REMARK  202  A    between atoms: _512  and  _513
REMARK  203  A    between atoms: _512  and  _515
REMARK  204  A    between atoms: _515  and  _516
REMARK  205  A    between atoms: _516  and  _517
REMARK  206  A    between atoms: _519  and  _521
REMARK  207  A    between atoms: _521  and  _522
REMARK  208  A    between atoms: _521  and  _524
REMARK  209  A    between atoms: _524  and  _525
REMARK  210  A    between atoms: _527  and  _529
REMARK  211  A    between atoms: _529  and  _530
REMARK  212  A    between atoms: _529  and  _532
REMARK  213  A    between atoms: _532  and  _533
REMARK  214  A    between atoms: _535  and  _537
REMARK  215  A    between atoms: _537  and  _538
REMARK  216  A    between atoms: _537  and  _540
REMARK  217  A    between atoms: _540  and  _541
REMARK  218  A    between atoms: _541  and  _542
REMARK  219  A    between atoms: _542  and  _543
REMARK  220  A    between atoms: _552  and  _554
REMARK  221  A    between atoms: _554  and  _555
REMARK  222  A    between atoms: _554  and  _557
REMARK  223  A    between atoms: _557  and  _558
REMARK  224  A    between atoms: _563  and  _565
REMARK  225  A    between atoms: _565  and  _566
REMARK  226  A    between atoms: _565  and  _568
REMARK  227  A    between atoms: _568  and  _569
REMARK  228  A    between atoms: _572  and  _574
REMARK  229  A    between atoms: _574  and  _575
REMARK  230  A    between atoms: _574  and  _577
REMARK  231  A    between atoms: _577  and  _578
REMARK  232  A    between atoms: _581  and  _583
REMARK  233  A    between atoms: _583  and  _584
REMARK  234  A    between atoms: _583  and  _586
REMARK  235  A    between atoms: _586  and  _587
REMARK                            x       y       z     vdW  Elec       q    Type
REMARK                         _______ _______ _______ _____ _____    ______ ____
ROOT
ATOM      1  O   HOH     1      15.652   2.951  -7.226  0.00  0.00    +0.000 OA
ENDROOT
TORSDOF 0
REMARK  Name = ../refined-set-2016/3ioe/3ioe_pocket.pdb
REMARK  235 active torsions:
REMARK  status: ('A' for Active; 'I' for Inactive)
REMARK    1  A    between atoms: _1  and  _3
REMARK    2  A    between atoms: _3  and  _4
REMARK    3  A    between atoms: _3  and  _6
REMARK    4  A    between atoms: _10  and  _11
REMARK    5  A    between atoms: _16  and  _18
REMARK    6  A    between atoms: _18  and  _19
REMARK    7  A    between atoms: _18  and  _21
REMARK    8  A    between atoms: _21  and  _22
REMARK    9  A    between atoms: _25  and  _27
REMARK   10  A    between atoms: _27  and  _28
REMARK   11  A    between atoms: _27  and  _30
REMARK   12  A    between atoms: _30  and  _31
REMARK   13  A    between atoms: _31  and  _32
REMARK   14  A    between atoms: _34  and  _36
REMARK   15  A    between atoms: _36  and  _37
REMARK   16  A    between atoms: _39  and  _41
REMARK   17  A    between atoms: _41  and  _42
REMARK   18  A    between atoms: _45  and  _47
REMARK   19  A    between atoms: _47  and  _48
REMARK   20  A    between atoms: _47  and  _50
REMARK   21  A    between atoms: _50  and  _51
REMARK   22  A    between atoms: _54  and  _56
REMARK   23  A    between atoms: _56  and  _57
REMARK   24  A    between atoms: _56  and  _59
REMARK   25  A    between atoms: _59  and  _60
REMARK   26  A    between atoms: _65  and  _67
REMARK   27  A    between atoms: _67  and  _68
REMARK   28  A    between atoms: _67  and  _70
REMARK   29  A    between atoms: _70  and  _71
REMARK   30  A    between atoms: _71  and  _72
REMARK   31  A    between atoms: _75  and  _77
REMARK   32  A    between atoms: _77  and  _78
REMARK   33  A    between atoms: _80  and  _82
REMARK   34  A    between atoms: _82  and  _83
REMARK   35  A    between atoms: _82  and  _85
REMARK   36  A    between atoms: _85  and  _86
REMARK   37  A    between atoms: _91  and  _93
REMARK   38  A    between atoms: _93  and  _94
REMARK   39  A    between atoms: _93  and  _96
REMARK   40  A    between atoms: _96  and  _97
REMARK   41  A    between atoms: _100  and  _102
REMARK   42  A    between atoms: _102  and  _103
REMARK   43  A    between atoms: _106  and  _108
REMARK   44  A    between atoms: _108  and  _109
REMARK   45  A    between atoms: _108  and  _111
REMARK   46  A    between atoms: _111  and  _112
REMARK   47  A    between atoms: _115  and  _117
REMARK   48  A    between atoms: _117  and  _118
REMARK   49  A    between atoms: _117  and  _120
REMARK   50  A    between atoms: _123  and  _125
REMARK   51  A    between atoms: _125  and  _126
REMARK   52  A    between atoms: _125  and  _128
REMARK   53  A    between atoms: _128  and  _129
REMARK   54  A    between atoms: _131  and  _133
REMARK   55  A    between atoms: _133  and  _134
REMARK   56  A    between atoms: _133  and  _136
REMARK   57  A    between atoms: _136  and  _137
REMARK   58  A    between atoms: _140  and  _142
REMARK   59  A    between atoms: _142  and  _143
REMARK   60  A    between atoms: _142  and  _145
REMARK   61  A    between atoms: _145  and  _146
REMARK   62  A    between atoms: _152  and  _154
REMARK   63  A    between atoms: _154  and  _155
REMARK   64  A    between atoms: _154  and  _157
REMARK   65  A    between atoms: _160  and  _162
REMARK   66  A    between atoms: _162  and  _163
REMARK   67  A    between atoms: _162  and  _165
REMARK   68  A    between atoms: _165  and  _166
REMARK   69  A    between atoms: _172  and  _173
REMARK   70  A    between atoms: _178  and  _180
REMARK   71  A    between atoms: _180  and  _181
REMARK   72  A    between atoms: _180  and  _183
REMARK   73  A    between atoms: _183  and  _184
REMARK   74  A    between atoms: _184  and  _185
REMARK   75  A    between atoms: _190  and  _192
REMARK   76  A    between atoms: _192  and  _193
REMARK   77  A    between atoms: _192  and  _195
REMARK   78  A    between atoms: _195  and  _196
REMARK   79  A    between atoms: _202  and  _204
REMARK   80  A    between atoms: _204  and  _205
REMARK   81  A    between atoms: _204  and  _207
REMARK   82  A    between atoms: _207  and  _208
REMARK   83  A    between atoms: _213  and  _214
REMARK   84  A    between atoms: _216  and  _218
REMARK   85  A    between atoms: _218  and  _219
REMARK   86  A    between atoms: _218  and  _221
REMARK   87  A    between atoms: _221  and  _222
REMARK   88  A    between atoms: _227  and  _228
REMARK   89  A    between atoms: _230  and  _232
REMARK   90  A    between atoms: _232  and  _233
REMARK   91  A    between atoms: _232  and  _235
REMARK   92  A    between atoms: _235  and  _236
REMARK   93  A    between atoms: _241  and  _243
REMARK   94  A    between atoms: _243  and  _244
REMARK   95  A    between atoms: _243  and  _246
REMARK   96  A    between atoms: _246  and  _247
REMARK   97  A    between atoms: _253  and  _255
REMARK   98  A    between atoms: _255  and  _256
REMARK   99  A    between atoms: _258  and  _260
REMARK  100  A    between atoms: _260  and  _261
REMARK  101  A    between atoms: _260  and  _263
REMARK  102  A    between atoms: _266  and  _268
REMARK  103  A    between atoms: _268  and  _269
REMARK  104  A    between atoms: _268  and  _271
REMARK  105  A    between atoms: _271  and  _272
REMARK  106  A    between atoms: _275  and  _277
REMARK  107  A    between atoms: _277  and  _278
REMARK  108  A    between atoms: _277  and  _280
REMARK  109  A    between atoms: _280  and  _281
REMARK  110  A    between atoms: _284  and  _286
REMARK  111  A    between atoms: _286  and  _287
REMARK  112  A    between atoms: _286  and  _289
REMARK  113  A    between atoms: _292  and  _294
REMARK  114  A    between atoms: _294  and  _295
REMARK  115  A    between atoms: _294  and  _297
REMARK  116  A    between atoms: _300  and  _302
REMARK  117  A    between atoms: _302  and  _303
REMARK  118  A    between atoms: _302  and  _305
REMARK  119  A    between atoms: _305  and  _306
REMARK  120  A    between atoms: _309  and  _311
REMARK  121  A    between atoms: _311  and  _312
REMARK  122  A    between atoms: _311  and  _314
REMARK  123  A    between atoms: _314  and  _315
REMARK  124  A    between atoms: _318  and  _320
REMARK  125  A    between atoms: _320  and  _321
REMARK  126  A    between atoms: _320  and  _323
REMARK  127  A    between atoms: _323  and  _324
REMARK  128  A    between atoms: _330  and  _332
REMARK  129  A    between atoms: _332  and  _333
REMARK  130  A    between atoms: _332  and  _335
REMARK  131  A    between atoms: _335  and  _336
REMARK  132  A    between atoms: _342  and  _344
REMARK  133  A    between atoms: _344  and  _345
REMARK  134  A    between atoms: _347  and  _349
REMARK  135  A    between atoms: _349  and  _350
REMARK  136  A    between atoms: _349  and  _352
REMARK  137  A    between atoms: _352  and  _353
REMARK  138  A    between atoms: _353  and  _354
REMARK  139  A    between atoms: _357  and  _359
REMARK  140  A    between atoms: _359  and  _360
REMARK  141  A    between atoms: _359  and  _362
REMARK  142  A    between atoms: _362  and  _363
REMARK  143  A    between atoms: _363  and  _364
REMARK  144  A    between atoms: _364  and  _365
REMARK  145  A    between atoms: _365  and  _366
REMARK  146  A    between atoms: _370  and  _372
REMARK  147  A    between atoms: _372  and  _373
REMARK  148  A    between atoms: _372  and  _375
REMARK  149  A    between atoms: _375  and  _376
REMARK  150  A    between atoms: _379  and  _381
REMARK  151  A    between atoms: _381  and  _382
REMARK  152  A    between atoms: _381  and  _384
REMARK  153  A    between atoms: _384  and  _385
REMARK  154  A    between atoms: _390  and  _391
REMARK  155  A    between atoms: _393  and  _395
REMARK  156  A    between atoms: _395  and  _396
REMARK  157  A    between atoms: _395  and  _398
REMARK  158  A    between atoms: _398  and  _399
REMARK  159  A    between atoms: _399  and  _400
REMARK  160  A    between atoms: _405  and  _407
REMARK  161  A    between atoms: _407  and  _408
REMARK  162  A    between atoms: _407  and  _410
REMARK  163  A    between atoms: _410  and  _411
REMARK  164  A    between atoms: _414  and  _416
REMARK  165  A    between atoms: _416  and  _417
REMARK  166  A    between atoms: _416  and  _419
REMARK  167  A    between atoms: _419  and  _420
REMARK  168  A    between atoms: _423  and  _425
REMARK  169  A    between atoms: _425  and  _426
REMARK  170  A    between atoms: _425  and  _428
REMARK  171  A    between atoms: _431  and  _433
REMARK  172  A    between atoms: _433  and  _434
REMARK  173  A    between atoms: _436  and  _438
REMARK  174  A    between atoms: _438  and  _439
REMARK  175  A    between atoms: _438  and  _441
REMARK  176  A    between atoms: _445  and  _446
REMARK  177  A    between atoms: _451  and  _453
REMARK  178  A    between atoms: _453  and  _454
REMARK  179  A    between atoms: _453  and  _456
REMARK  180  A    between atoms: _456  and  _457
REMARK  181  A    between atoms: _460  and  _462
REMARK  182  A    between atoms: _462  and  _463
REMARK  183  A    between atoms: _462  and  _465
REMARK  184  A    between atoms: _468  and  _470
REMARK  185  A    between atoms: _470  and  _471
REMARK  186  A    between atoms: _470  and  _473
REMARK  187  A    between atoms: _473  and  _474
REMARK  188  A    between atoms: _474  and  _475
REMARK  189  A    between atoms: _475  and  _476
REMARK  190  A    between atoms: _485  and  _487
REMARK  191  A    between atoms: _487  and  _488
REMARK  192  A    between atoms: _487  and  _490
REMARK  193  A    between atoms: _490  and  _491
REMARK  194  A    between atoms: _491  and  _492
REMARK  195  A    between atoms: _495  and  _497
REMARK  196  A    between atoms: _497  and  _498
REMARK  197  A    between atoms: _497  and  _500
REMARK  198  A    between atoms: _500  and  _501
REMARK  199  A    between atoms: _504  and  _506
REMARK  200  A    between atoms: _506  and  _507
REMARK  201  A    between atoms: _510  and  _512
REMARK  202  A    between atoms: _512  and  _513
REMARK  203  A    between atoms: _512  and  _515
REMARK  204  A    between atoms: _515  and  _516
REMARK  205  A    between atoms: _516  and  _517
REMARK  206  A    between atoms: _519  and  _521
REMARK  207  A    between atoms: _521  and  _522
REMARK  208  A    between atoms: _521  and  _524
REMARK  209  A    between atoms: _524  and  _525
REMARK  210  A    between atoms: _527  and  _529
REMARK  211  A    between atoms: _529  and  _530
REMARK  212  A    between atoms: _529  and  _532
REMARK  213  A    between atoms: _532  and  _533
REMARK  214  A    between atoms: _535  and  _537
REMARK  215  A    between atoms: _537  and  _538
REMARK  216  A    between atoms: _537  and  _540
REMARK  217  A    between atoms: _540  and  _541
REMARK  218  A    between atoms: _541  and  _542
REMARK  219  A    between atoms: _542  and  _543
REMARK  220  A    between atoms: _552  and  _554
REMARK  221  A    between atoms: _554  and  _555
REMARK  222  A    between atoms: _554  and  _557
REMARK  223  A    between atoms: _557  and  _558
REMARK  224  A    between atoms: _563  and  _565
REMARK  225  A    between atoms: _565  and  _566
REMARK  226  A    between atoms: _565  and  _568
REMARK  227  A    between atoms: _568  and  _569
REMARK  228  A    between atoms: _572  and  _574
REMARK  229  A    between atoms: _574  and  _575
REMARK  230  A    between atoms: _574  and  _577
REMARK  231  A    between atoms: _577  and  _578
REMARK  232  A    between atoms: _581  and  _583
REMARK  233  A    between atoms: _583  and  _584
REMARK  234  A    between atoms: _583  and  _586
REMARK  235  A    between atoms: _586  and  _587
REMARK                            x       y       z     vdW  Elec       q    Type
REMARK                         _______ _______ _______ _____ _____    ______ ____
ROOT
ATOM      1  O   HOH     1      12.952  10.192 -12.588  0.00  0.00    +0.000 OA
ENDROOT
TORSDOF 0
REMARK  Name = ../refined-set-2016/3ioe/3ioe_pocket.pdb
REMARK  235 active torsions:
REMARK  status: ('A' for Active; 'I' for Inactive)
REMARK    1  A    between atoms: _1  and  _3
REMARK    2  A    between atoms: _3  and  _4
REMARK    3  A    between atoms: _3  and  _6
REMARK    4  A    between atoms: _10  and  _11
REMARK    5  A    between atoms: _16  and  _18
REMARK    6  A    between atoms: _18  and  _19
REMARK    7  A    between atoms: _18  and  _21
REMARK    8  A    between atoms: _21  and  _22
REMARK    9  A    between atoms: _25  and  _27
REMARK   10  A    between atoms: _27  and  _28
REMARK   11  A    between atoms: _27  and  _30
REMARK   12  A    between atoms: _30  and  _31
REMARK   13  A    between atoms: _31  and  _32
REMARK   14  A    between atoms: _34  and  _36
REMARK   15  A    between atoms: _36  and  _37
REMARK   16  A    between atoms: _39  and  _41
REMARK   17  A    between atoms: _41  and  _42
REMARK   18  A    between atoms: _45  and  _47
REMARK   19  A    between atoms: _47  and  _48
REMARK   20  A    between atoms: _47  and  _50
REMARK   21  A    between atoms: _50  and  _51
REMARK   22  A    between atoms: _54  and  _56
REMARK   23  A    between atoms: _56  and  _57
REMARK   24  A    between atoms: _56  and  _59
REMARK   25  A    between atoms: _59  and  _60
REMARK   26  A    between atoms: _65  and  _67
REMARK   27  A    between atoms: _67  and  _68
REMARK   28  A    between atoms: _67  and  _70
REMARK   29  A    between atoms: _70  and  _71
REMARK   30  A    between atoms: _71  and  _72
REMARK   31  A    between atoms: _75  and  _77
REMARK   32  A    between atoms: _77  and  _78
REMARK   33  A    between atoms: _80  and  _82
REMARK   34  A    between atoms: _82  and  _83
REMARK   35  A    between atoms: _82  and  _85
REMARK   36  A    between atoms: _85  and  _86
REMARK   37  A    between atoms: _91  and  _93
REMARK   38  A    between atoms: _93  and  _94
REMARK   39  A    between atoms: _93  and  _96
REMARK   40  A    between atoms: _96  and  _97
REMARK   41  A    between atoms: _100  and  _102
REMARK   42  A    between atoms: _102  and  _103
REMARK   43  A    between atoms: _106  and  _108
REMARK   44  A    between atoms: _108  and  _109
REMARK   45  A    between atoms: _108  and  _111
REMARK   46  A    between atoms: _111  and  _112
REMARK   47  A    between atoms: _115  and  _117
REMARK   48  A    between atoms: _117  and  _118
REMARK   49  A    between atoms: _117  and  _120
REMARK   50  A    between atoms: _123  and  _125
REMARK   51  A    between atoms: _125  and  _126
REMARK   52  A    between atoms: _125  and  _128
REMARK   53  A    between atoms: _128  and  _129
REMARK   54  A    between atoms: _131  and  _133
REMARK   55  A    between atoms: _133  and  _134
REMARK   56  A    between atoms: _133  and  _136
REMARK   57  A    between atoms: _136  and  _137
REMARK   58  A    between atoms: _140  and  _142
REMARK   59  A    between atoms: _142  and  _143
REMARK   60  A    between atoms: _142  and  _145
REMARK   61  A    between atoms: _145  and  _146
REMARK   62  A    between atoms: _152  and  _154
REMARK   63  A    between atoms: _154  and  _155
REMARK   64  A    between atoms: _154  and  _157
REMARK   65  A    between atoms: _160  and  _162
REMARK   66  A    between atoms: _162  and  _163
REMARK   67  A    between atoms: _162  and  _165
REMARK   68  A    between atoms: _165  and  _166
REMARK   69  A    between atoms: _172  and  _173
REMARK   70  A    between atoms: _178  and  _180
REMARK   71  A    between atoms: _180  and  _181
REMARK   72  A    between atoms: _180  and  _183
REMARK   73  A    between atoms: _183  and  _184
REMARK   74  A    between atoms: _184  and  _185
REMARK   75  A    between atoms: _190  and  _192
REMARK   76  A    between atoms: _192  and  _193
REMARK   77  A    between atoms: _192  and  _195
REMARK   78  A    between atoms: _195  and  _196
REMARK   79  A    between atoms: _202  and  _204
REMARK   80  A    between atoms: _204  and  _205
REMARK   81  A    between atoms: _204  and  _207
REMARK   82  A    between atoms: _207  and  _208
REMARK   83  A    between atoms: _213  and  _214
REMARK   84  A    between atoms: _216  and  _218
REMARK   85  A    between atoms: _218  and  _219
REMARK   86  A    between atoms: _218  and  _221
REMARK   87  A    between atoms: _221  and  _222
REMARK   88  A    between atoms: _227  and  _228
REMARK   89  A    between atoms: _230  and  _232
REMARK   90  A    between atoms: _232  and  _233
REMARK   91  A    between atoms: _232  and  _235
REMARK   92  A    between atoms: _235  and  _236
REMARK   93  A    between atoms: _241  and  _243
REMARK   94  A    between atoms: _243  and  _244
REMARK   95  A    between atoms: _243  and  _246
REMARK   96  A    between atoms: _246  and  _247
REMARK   97  A    between atoms: _253  and  _255
REMARK   98  A    between atoms: _255  and  _256
REMARK   99  A    between atoms: _258  and  _260
REMARK  100  A    between atoms: _260  and  _261
REMARK  101  A    between atoms: _260  and  _263
REMARK  102  A    between atoms: _266  and  _268
REMARK  103  A    between atoms: _268  and  _269
REMARK  104  A    between atoms: _268  and  _271
REMARK  105  A    between atoms: _271  and  _272
REMARK  106  A    between atoms: _275  and  _277
REMARK  107  A    between atoms: _277  and  _278
REMARK  108  A    between atoms: _277  and  _280
REMARK  109  A    between atoms: _280  and  _281
REMARK  110  A    between atoms: _284  and  _286
REMARK  111  A    between atoms: _286  and  _287
REMARK  112  A    between atoms: _286  and  _289
REMARK  113  A    between atoms: _292  and  _294
REMARK  114  A    between atoms: _294  and  _295
REMARK  115  A    between atoms: _294  and  _297
REMARK  116  A    between atoms: _300  and  _302
REMARK  117  A    between atoms: _302  and  _303
REMARK  118  A    between atoms: _302  and  _305
REMARK  119  A    between atoms: _305  and  _306
REMARK  120  A    between atoms: _309  and  _311
REMARK  121  A    between atoms: _311  and  _312
REMARK  122  A    between atoms: _311  and  _314
REMARK  123  A    between atoms: _314  and  _315
REMARK  124  A    between atoms: _318  and  _320
REMARK  125  A    between atoms: _320  and  _321
REMARK  126  A    between atoms: _320  and  _323
REMARK  127  A    between atoms: _323  and  _324
REMARK  128  A    between atoms: _330  and  _332
REMARK  129  A    between atoms: _332  and  _333
REMARK  130  A    between atoms: _332  and  _335
REMARK  131  A    between atoms: _335  and  _336
REMARK  132  A    between atoms: _342  and  _344
REMARK  133  A    between atoms: _344  and  _345
REMARK  134  A    between atoms: _347  and  _349
REMARK  135  A    between atoms: _349  and  _350
REMARK  136  A    between atoms: _349  and  _352
REMARK  137  A    between atoms: _352  and  _353
REMARK  138  A    between atoms: _353  and  _354
REMARK  139  A    between atoms: _357  and  _359
REMARK  140  A    between atoms: _359  and  _360
REMARK  141  A    between atoms: _359  and  _362
REMARK  142  A    between atoms: _362  and  _363
REMARK  143  A    between atoms: _363  and  _364
REMARK  144  A    between atoms: _364  and  _365
REMARK  145  A    between atoms: _365  and  _366
REMARK  146  A    between atoms: _370  and  _372
REMARK  147  A    between atoms: _372  and  _373
REMARK  148  A    between atoms: _372  and  _375
REMARK  149  A    between atoms: _375  and  _376
REMARK  150  A    between atoms: _379  and  _381
REMARK  151  A    between atoms: _381  and  _382
REMARK  152  A    between atoms: _381  and  _384
REMARK  153  A    between atoms: _384  and  _385
REMARK  154  A    between atoms: _390  and  _391
REMARK  155  A    between atoms: _393  and  _395
REMARK  156  A    between atoms: _395  and  _396
REMARK  157  A    between atoms: _395  and  _398
REMARK  158  A    between atoms: _398  and  _399
REMARK  159  A    between atoms: _399  and  _400
REMARK  160  A    between atoms: _405  and  _407
REMARK  161  A    between atoms: _407  and  _408
REMARK  162  A    between atoms: _407  and  _410
REMARK  163  A    between atoms: _410  and  _411
REMARK  164  A    between atoms: _414  and  _416
REMARK  165  A    between atoms: _416  and  _417
REMARK  166  A    between atoms: _416  and  _419
REMARK  167  A    between atoms: _419  and  _420
REMARK  168  A    between atoms: _423  and  _425
REMARK  169  A    between atoms: _425  and  _426
REMARK  170  A    between atoms: _425  and  _428
REMARK  171  A    between atoms: _431  and  _433
REMARK  172  A    between atoms: _433  and  _434
REMARK  173  A    between atoms: _436  and  _438
REMARK  174  A    between atoms: _438  and  _439
REMARK  175  A    between atoms: _438  and  _441
REMARK  176  A    between atoms: _445  and  _446
REMARK  177  A    between atoms: _451  and  _453
REMARK  178  A    between atoms: _453  and  _454
REMARK  179  A    between atoms: _453  and  _456
REMARK  180  A    between atoms: _456  and  _457
REMARK  181  A    between atoms: _460  and  _462
REMARK  182  A    between atoms: _462  and  _463
REMARK  183  A    between atoms: _462  and  _465
REMARK  184  A    between atoms: _468  and  _470
REMARK  185  A    between atoms: _470  and  _471
REMARK  186  A    between atoms: _470  and  _473
REMARK  187  A    between atoms: _473  and  _474
REMARK  188  A    between atoms: _474  and  _475
REMARK  189  A    between atoms: _475  and  _476
REMARK  190  A    between atoms: _485  and  _487
REMARK  191  A    between atoms: _487  and  _488
REMARK  192  A    between atoms: _487  and  _490
REMARK  193  A    between atoms: _490  and  _491
REMARK  194  A    between atoms: _491  and  _492
REMARK  195  A    between atoms: _495  and  _497
REMARK  196  A    between atoms: _497  and  _498
REMARK  197  A    between atoms: _497  and  _500
REMARK  198  A    between atoms: _500  and  _501
REMARK  199  A    between atoms: _504  and  _506
REMARK  200  A    between atoms: _506  and  _507
REMARK  201  A    between atoms: _510  and  _512
REMARK  202  A    between atoms: _512  and  _513
REMARK  203  A    between atoms: _512  and  _515
REMARK  204  A    between atoms: _515  and  _516
REMARK  205  A    between atoms: _516  and  _517
REMARK  206  A    between atoms: _519  and  _521
REMARK  207  A    between atoms: _521  and  _522
REMARK  208  A    between atoms: _521  and  _524
REMARK  209  A    between atoms: _524  and  _525
REMARK  210  A    between atoms: _527  and  _529
REMARK  211  A    between atoms: _529  and  _530
REMARK  212  A    between atoms: _529  and  _532
REMARK  213  A    between atoms: _532  and  _533
REMARK  214  A    between atoms: _535  and  _537
REMARK  215  A    between atoms: _537  and  _538
REMARK  216  A    between atoms: _537  and  _540
REMARK  217  A    between atoms: _540  and  _541
REMARK  218  A    between atoms: _541  and  _542
REMARK  219  A    between atoms: _542  and  _543
REMARK  220  A    between atoms: _552  and  _554
REMARK  221  A    between atoms: _554  and  _555
REMARK  222  A    between atoms: _554  and  _557
REMARK  223  A    between atoms: _557  and  _558
REMARK  224  A    between atoms: _563  and  _565
REMARK  225  A    between atoms: _565  and  _566
REMARK  226  A    between atoms: _565  and  _568
REMARK  227  A    between atoms: _568  and  _569
REMARK  228  A    between atoms: _572  and  _574
REMARK  229  A    between atoms: _574  and  _575
REMARK  230  A    between atoms: _574  and  _577
REMARK  231  A    between atoms: _577  and  _578
REMARK  232  A    between atoms: _581  and  _583
REMARK  233  A    between atoms: _583  and  _584
REMARK  234  A    between atoms: _583  and  _586
REMARK  235  A    between atoms: _586  and  _587
REMARK                            x       y       z     vdW  Elec       q    Type
REMARK                         _______ _______ _______ _____ _____    ______ ____
ROOT
ATOM      1  O   HOH     1       6.403   8.952  -8.324  0.00  0.00    +0.000 OA
ENDROOT
TORSDOF 0
REMARK  Name = ../refined-set-2016/3ioe/3ioe_pocket.pdb
REMARK  235 active torsions:
REMARK  status: ('A' for Active; 'I' for Inactive)
REMARK    1  A    between atoms: _1  and  _3
REMARK    2  A    between atoms: _3  and  _4
REMARK    3  A    between atoms: _3  and  _6
REMARK    4  A    between atoms: _10  and  _11
REMARK    5  A    between atoms: _16  and  _18
REMARK    6  A    between atoms: _18  and  _19
REMARK    7  A    between atoms: _18  and  _21
REMARK    8  A    between atoms: _21  and  _22
REMARK    9  A    between atoms: _25  and  _27
REMARK   10  A    between atoms: _27  and  _28
REMARK   11  A    between atoms: _27  and  _30
REMARK   12  A    between atoms: _30  and  _31
REMARK   13  A    between atoms: _31  and  _32
REMARK   14  A    between atoms: _34  and  _36
REMARK   15  A    between atoms: _36  and  _37
REMARK   16  A    between atoms: _39  and  _41
REMARK   17  A    between atoms: _41  and  _42
REMARK   18  A    between atoms: _45  and  _47
REMARK   19  A    between atoms: _47  and  _48
REMARK   20  A    between atoms: _47  and  _50
REMARK   21  A    between atoms: _50  and  _51
REMARK   22  A    between atoms: _54  and  _56
REMARK   23  A    between atoms: _56  and  _57
REMARK   24  A    between atoms: _56  and  _59
REMARK   25  A    between atoms: _59  and  _60
REMARK   26  A    between atoms: _65  and  _67
REMARK   27  A    between atoms: _67  and  _68
REMARK   28  A    between atoms: _67  and  _70
REMARK   29  A    between atoms: _70  and  _71
REMARK   30  A    between atoms: _71  and  _72
REMARK   31  A    between atoms: _75  and  _77
REMARK   32  A    between atoms: _77  and  _78
REMARK   33  A    between atoms: _80  and  _82
REMARK   34  A    between atoms: _82  and  _83
REMARK   35  A    between atoms: _82  and  _85
REMARK   36  A    between atoms: _85  and  _86
REMARK   37  A    between atoms: _91  and  _93
REMARK   38  A    between atoms: _93  and  _94
REMARK   39  A    between atoms: _93  and  _96
REMARK   40  A    between atoms: _96  and  _97
REMARK   41  A    between atoms: _100  and  _102
REMARK   42  A    between atoms: _102  and  _103
REMARK   43  A    between atoms: _106  and  _108
REMARK   44  A    between atoms: _108  and  _109
REMARK   45  A    between atoms: _108  and  _111
REMARK   46  A    between atoms: _111  and  _112
REMARK   47  A    between atoms: _115  and  _117
REMARK   48  A    between atoms: _117  and  _118
REMARK   49  A    between atoms: _117  and  _120
REMARK   50  A    between atoms: _123  and  _125
REMARK   51  A    between atoms: _125  and  _126
REMARK   52  A    between atoms: _125  and  _128
REMARK   53  A    between atoms: _128  and  _129
REMARK   54  A    between atoms: _131  and  _133
REMARK   55  A    between atoms: _133  and  _134
REMARK   56  A    between atoms: _133  and  _136
REMARK   57  A    between atoms: _136  and  _137
REMARK   58  A    between atoms: _140  and  _142
REMARK   59  A    between atoms: _142  and  _143
REMARK   60  A    between atoms: _142  and  _145
REMARK   61  A    between atoms: _145  and  _146
REMARK   62  A    between atoms: _152  and  _154
REMARK   63  A    between atoms: _154  and  _155
REMARK   64  A    between atoms: _154  and  _157
REMARK   65  A    between atoms: _160  and  _162
REMARK   66  A    between atoms: _162  and  _163
REMARK   67  A    between atoms: _162  and  _165
REMARK   68  A    between atoms: _165  and  _166
REMARK   69  A    between atoms: _172  and  _173
REMARK   70  A    between atoms: _178  and  _180
REMARK   71  A    between atoms: _180  and  _181
REMARK   72  A    between atoms: _180  and  _183
REMARK   73  A    between atoms: _183  and  _184
REMARK   74  A    between atoms: _184  and  _185
REMARK   75  A    between atoms: _190  and  _192
REMARK   76  A    between atoms: _192  and  _193
REMARK   77  A    between atoms: _192  and  _195
REMARK   78  A    between atoms: _195  and  _196
REMARK   79  A    between atoms: _202  and  _204
REMARK   80  A    between atoms: _204  and  _205
REMARK   81  A    between atoms: _204  and  _207
REMARK   82  A    between atoms: _207  and  _208
REMARK   83  A    between atoms: _213  and  _214
REMARK   84  A    between atoms: _216  and  _218
REMARK   85  A    between atoms: _218  and  _219
REMARK   86  A    between atoms: _218  and  _221
REMARK   87  A    between atoms: _221  and  _222
REMARK   88  A    between atoms: _227  and  _228
REMARK   89  A    between atoms: _230  and  _232
REMARK   90  A    between atoms: _232  and  _233
REMARK   91  A    between atoms: _232  and  _235
REMARK   92  A    between atoms: _235  and  _236
REMARK   93  A    between atoms: _241  and  _243
REMARK   94  A    between atoms: _243  and  _244
REMARK   95  A    between atoms: _243  and  _246
REMARK   96  A    between atoms: _246  and  _247
REMARK   97  A    between atoms: _253  and  _255
REMARK   98  A    between atoms: _255  and  _256
REMARK   99  A    between atoms: _258  and  _260
REMARK  100  A    between atoms: _260  and  _261
REMARK  101  A    between atoms: _260  and  _263
REMARK  102  A    between atoms: _266  and  _268
REMARK  103  A    between atoms: _268  and  _269
REMARK  104  A    between atoms: _268  and  _271
REMARK  105  A    between atoms: _271  and  _272
REMARK  106  A    between atoms: _275  and  _277
REMARK  107  A    between atoms: _277  and  _278
REMARK  108  A    between atoms: _277  and  _280
REMARK  109  A    between atoms: _280  and  _281
REMARK  110  A    between atoms: _284  and  _286
REMARK  111  A    between atoms: _286  and  _287
REMARK  112  A    between atoms: _286  and  _289
REMARK  113  A    between atoms: _292  and  _294
REMARK  114  A    between atoms: _294  and  _295
REMARK  115  A    between atoms: _294  and  _297
REMARK  116  A    between atoms: _300  and  _302
REMARK  117  A    between atoms: _302  and  _303
REMARK  118  A    between atoms: _302  and  _305
REMARK  119  A    between atoms: _305  and  _306
REMARK  120  A    between atoms: _309  and  _311
REMARK  121  A    between atoms: _311  and  _312
REMARK  122  A    between atoms: _311  and  _314
REMARK  123  A    between atoms: _314  and  _315
REMARK  124  A    between atoms: _318  and  _320
REMARK  125  A    between atoms: _320  and  _321
REMARK  126  A    between atoms: _320  and  _323
REMARK  127  A    between atoms: _323  and  _324
REMARK  128  A    between atoms: _330  and  _332
REMARK  129  A    between atoms: _332  and  _333
REMARK  130  A    between atoms: _332  and  _335
REMARK  131  A    between atoms: _335  and  _336
REMARK  132  A    between atoms: _342  and  _344
REMARK  133  A    between atoms: _344  and  _345
REMARK  134  A    between atoms: _347  and  _349
REMARK  135  A    between atoms: _349  and  _350
REMARK  136  A    between atoms: _349  and  _352
REMARK  137  A    between atoms: _352  and  _353
REMARK  138  A    between atoms: _353  and  _354
REMARK  139  A    between atoms: _357  and  _359
REMARK  140  A    between atoms: _359  and  _360
REMARK  141  A    between atoms: _359  and  _362
REMARK  142  A    between atoms: _362  and  _363
REMARK  143  A    between atoms: _363  and  _364
REMARK  144  A    between atoms: _364  and  _365
REMARK  145  A    between atoms: _365  and  _366
REMARK  146  A    between atoms: _370  and  _372
REMARK  147  A    between atoms: _372  and  _373
REMARK  148  A    between atoms: _372  and  _375
REMARK  149  A    between atoms: _375  and  _376
REMARK  150  A    between atoms: _379  and  _381
REMARK  151  A    between atoms: _381  and  _382
REMARK  152  A    between atoms: _381  and  _384
REMARK  153  A    between atoms: _384  and  _385
REMARK  154  A    between atoms: _390  and  _391
REMARK  155  A    between atoms: _393  and  _395
REMARK  156  A    between atoms: _395  and  _396
REMARK  157  A    between atoms: _395  and  _398
REMARK  158  A    between atoms: _398  and  _399
REMARK  159  A    between atoms: _399  and  _400
REMARK  160  A    between atoms: _405  and  _407
REMARK  161  A    between atoms: _407  and  _408
REMARK  162  A    between atoms: _407  and  _410
REMARK  163  A    between atoms: _410  and  _411
REMARK  164  A    between atoms: _414  and  _416
REMARK  165  A    between atoms: _416  and  _417
REMARK  166  A    between atoms: _416  and  _419
REMARK  167  A    between atoms: _419  and  _420
REMARK  168  A    between atoms: _423  and  _425
REMARK  169  A    between atoms: _425  and  _426
REMARK  170  A    between atoms: _425  and  _428
REMARK  171  A    between atoms: _431  and  _433
REMARK  172  A    between atoms: _433  and  _434
REMARK  173  A    between atoms: _436  and  _438
REMARK  174  A    between atoms: _438  and  _439
REMARK  175  A    between atoms: _438  and  _441
REMARK  176  A    between atoms: _445  and  _446
REMARK  177  A    between atoms: _451  and  _453
REMARK  178  A    between atoms: _453  and  _454
REMARK  179  A    between atoms: _453  and  _456
REMARK  180  A    between atoms: _456  and  _457
REMARK  181  A    between atoms: _460  and  _462
REMARK  182  A    between atoms: _462  and  _463
REMARK  183  A    between atoms: _462  and  _465
REMARK  184  A    between atoms: _468  and  _470
REMARK  185  A    between atoms: _470  and  _471
REMARK  186  A    between atoms: _470  and  _473
REMARK  187  A    between atoms: _473  and  _474
REMARK  188  A    between atoms: _474  and  _475
REMARK  189  A    between atoms: _475  and  _476
REMARK  190  A    between atoms: _485  and  _487
REMARK  191  A    between atoms: _487  and  _488
REMARK  192  A    between atoms: _487  and  _490
REMARK  193  A    between atoms: _490  and  _491
REMARK  194  A    between atoms: _491  and  _492
REMARK  195  A    between atoms: _495  and  _497
REMARK  196  A    between atoms: _497  and  _498
REMARK  197  A    between atoms: _497  and  _500
REMARK  198  A    between atoms: _500  and  _501
REMARK  199  A    between atoms: _504  and  _506
REMARK  200  A    between atoms: _506  and  _507
REMARK  201  A    between atoms: _510  and  _512
REMARK  202  A    between atoms: _512  and  _513
REMARK  203  A    between atoms: _512  and  _515
REMARK  204  A    between atoms: _515  and  _516
REMARK  205  A    between atoms: _516  and  _517
REMARK  206  A    between atoms: _519  and  _521
REMARK  207  A    between atoms: _521  and  _522
REMARK  208  A    between atoms: _521  and  _524
REMARK  209  A    between atoms: _524  and  _525
REMARK  210  A    between atoms: _527  and  _529
REMARK  211  A    between atoms: _529  and  _530
REMARK  212  A    between atoms: _529  and  _532
REMARK  213  A    between atoms: _532  and  _533
REMARK  214  A    between atoms: _535  and  _537
REMARK  215  A    between atoms: _537  and  _538
REMARK  216  A    between atoms: _537  and  _540
REMARK  217  A    between atoms: _540  and  _541
REMARK  218  A    between atoms: _541  and  _542
REMARK  219  A    between atoms: _542  and  _543
REMARK  220  A    between atoms: _552  and  _554
REMARK  221  A    between atoms: _554  and  _555
REMARK  222  A    between atoms: _554  and  _557
REMARK  223  A    between atoms: _557  and  _558
REMARK  224  A    between atoms: _563  and  _565
REMARK  225  A    between atoms: _565  and  _566
REMARK  226  A    between atoms: _565  and  _568
REMARK  227  A    between atoms: _568  and  _569
REMARK  228  A    between atoms: _572  and  _574
REMARK  229  A    between atoms: _574  and  _575
REMARK  230  A    between atoms: _574  and  _577
REMARK  231  A    between atoms: _577  and  _578
REMARK  232  A    between atoms: _581  and  _583
REMARK  233  A    between atoms: _583  and  _584
REMARK  234  A    between atoms: _583  and  _586
REMARK  235  A    between atoms: _586  and  _587
REMARK                            x       y       z     vdW  Elec       q    Type
REMARK                         _______ _______ _______ _____ _____    ______ ____
ROOT
ATOM      1  O   HOH     1      14.185  11.785  10.997  0.00  0.00    +0.000 OA
ENDROOT
TORSDOF 0
REMARK  Name = ../refined-set-2016/3ioe/3ioe_pocket.pdb
REMARK  235 active torsions:
REMARK  status: ('A' for Active; 'I' for Inactive)
REMARK    1  A    between atoms: _1  and  _3
REMARK    2  A    between atoms: _3  and  _4
REMARK    3  A    between atoms: _3  and  _6
REMARK    4  A    between atoms: _10  and  _11
REMARK    5  A    between atoms: _16  and  _18
REMARK    6  A    between atoms: _18  and  _19
REMARK    7  A    between atoms: _18  and  _21
REMARK    8  A    between atoms: _21  and  _22
REMARK    9  A    between atoms: _25  and  _27
REMARK   10  A    between atoms: _27  and  _28
REMARK   11  A    between atoms: _27  and  _30
REMARK   12  A    between atoms: _30  and  _31
REMARK   13  A    between atoms: _31  and  _32
REMARK   14  A    between atoms: _34  and  _36
REMARK   15  A    between atoms: _36  and  _37
REMARK   16  A    between atoms: _39  and  _41
REMARK   17  A    between atoms: _41  and  _42
REMARK   18  A    between atoms: _45  and  _47
REMARK   19  A    between atoms: _47  and  _48
REMARK   20  A    between atoms: _47  and  _50
REMARK   21  A    between atoms: _50  and  _51
REMARK   22  A    between atoms: _54  and  _56
REMARK   23  A    between atoms: _56  and  _57
REMARK   24  A    between atoms: _56  and  _59
REMARK   25  A    between atoms: _59  and  _60
REMARK   26  A    between atoms: _65  and  _67
REMARK   27  A    between atoms: _67  and  _68
REMARK   28  A    between atoms: _67  and  _70
REMARK   29  A    between atoms: _70  and  _71
REMARK   30  A    between atoms: _71  and  _72
REMARK   31  A    between atoms: _75  and  _77
REMARK   32  A    between atoms: _77  and  _78
REMARK   33  A    between atoms: _80  and  _82
REMARK   34  A    between atoms: _82  and  _83
REMARK   35  A    between atoms: _82  and  _85
REMARK   36  A    between atoms: _85  and  _86
REMARK   37  A    between atoms: _91  and  _93
REMARK   38  A    between atoms: _93  and  _94
REMARK   39  A    between atoms: _93  and  _96
REMARK   40  A    between atoms: _96  and  _97
REMARK   41  A    between atoms: _100  and  _102
REMARK   42  A    between atoms: _102  and  _103
REMARK   43  A    between atoms: _106  and  _108
REMARK   44  A    between atoms: _108  and  _109
REMARK   45  A    between atoms: _108  and  _111
REMARK   46  A    between atoms: _111  and  _112
REMARK   47  A    between atoms: _115  and  _117
REMARK   48  A    between atoms: _117  and  _118
REMARK   49  A    between atoms: _117  and  _120
REMARK   50  A    between atoms: _123  and  _125
REMARK   51  A    between atoms: _125  and  _126
REMARK   52  A    between atoms: _125  and  _128
REMARK   53  A    between atoms: _128  and  _129
REMARK   54  A    between atoms: _131  and  _133
REMARK   55  A    between atoms: _133  and  _134
REMARK   56  A    between atoms: _133  and  _136
REMARK   57  A    between atoms: _136  and  _137
REMARK   58  A    between atoms: _140  and  _142
REMARK   59  A    between atoms: _142  and  _143
REMARK   60  A    between atoms: _142  and  _145
REMARK   61  A    between atoms: _145  and  _146
REMARK   62  A    between atoms: _152  and  _154
REMARK   63  A    between atoms: _154  and  _155
REMARK   64  A    between atoms: _154  and  _157
REMARK   65  A    between atoms: _160  and  _162
REMARK   66  A    between atoms: _162  and  _163
REMARK   67  A    between atoms: _162  and  _165
REMARK   68  A    between atoms: _165  and  _166
REMARK   69  A    between atoms: _172  and  _173
REMARK   70  A    between atoms: _178  and  _180
REMARK   71  A    between atoms: _180  and  _181
REMARK   72  A    between atoms: _180  and  _183
REMARK   73  A    between atoms: _183  and  _184
REMARK   74  A    between atoms: _184  and  _185
REMARK   75  A    between atoms: _190  and  _192
REMARK   76  A    between atoms: _192  and  _193
REMARK   77  A    between atoms: _192  and  _195
REMARK   78  A    between atoms: _195  and  _196
REMARK   79  A    between atoms: _202  and  _204
REMARK   80  A    between atoms: _204  and  _205
REMARK   81  A    between atoms: _204  and  _207
REMARK   82  A    between atoms: _207  and  _208
REMARK   83  A    between atoms: _213  and  _214
REMARK   84  A    between atoms: _216  and  _218
REMARK   85  A    between atoms: _218  and  _219
REMARK   86  A    between atoms: _218  and  _221
REMARK   87  A    between atoms: _221  and  _222
REMARK   88  A    between atoms: _227  and  _228
REMARK   89  A    between atoms: _230  and  _232
REMARK   90  A    between atoms: _232  and  _233
REMARK   91  A    between atoms: _232  and  _235
REMARK   92  A    between atoms: _235  and  _236
REMARK   93  A    between atoms: _241  and  _243
REMARK   94  A    between atoms: _243  and  _244
REMARK   95  A    between atoms: _243  and  _246
REMARK   96  A    between atoms: _246  and  _247
REMARK   97  A    between atoms: _253  and  _255
REMARK   98  A    between atoms: _255  and  _256
REMARK   99  A    between atoms: _258  and  _260
REMARK  100  A    between atoms: _260  and  _261
REMARK  101  A    between atoms: _260  and  _263
REMARK  102  A    between atoms: _266  and  _268
REMARK  103  A    between atoms: _268  and  _269
REMARK  104  A    between atoms: _268  and  _271
REMARK  105  A    between atoms: _271  and  _272
REMARK  106  A    between atoms: _275  and  _277
REMARK  107  A    between atoms: _277  and  _278
REMARK  108  A    between atoms: _277  and  _280
REMARK  109  A    between atoms: _280  and  _281
REMARK  110  A    between atoms: _284  and  _286
REMARK  111  A    between atoms: _286  and  _287
REMARK  112  A    between atoms: _286  and  _289
REMARK  113  A    between atoms: _292  and  _294
REMARK  114  A    between atoms: _294  and  _295
REMARK  115  A    between atoms: _294  and  _297
REMARK  116  A    between atoms: _300  and  _302
REMARK  117  A    between atoms: _302  and  _303
REMARK  118  A    between atoms: _302  and  _305
REMARK  119  A    between atoms: _305  and  _306
REMARK  120  A    between atoms: _309  and  _311
REMARK  121  A    between atoms: _311  and  _312
REMARK  122  A    between atoms: _311  and  _314
REMARK  123  A    between atoms: _314  and  _315
REMARK  124  A    between atoms: _318  and  _320
REMARK  125  A    between atoms: _320  and  _321
REMARK  126  A    between atoms: _320  and  _323
REMARK  127  A    between atoms: _323  and  _324
REMARK  128  A    between atoms: _330  and  _332
REMARK  129  A    between atoms: _332  and  _333
REMARK  130  A    between atoms: _332  and  _335
REMARK  131  A    between atoms: _335  and  _336
REMARK  132  A    between atoms: _342  and  _344
REMARK  133  A    between atoms: _344  and  _345
REMARK  134  A    between atoms: _347  and  _349
REMARK  135  A    between atoms: _349  and  _350
REMARK  136  A    between atoms: _349  and  _352
REMARK  137  A    between atoms: _352  and  _353
REMARK  138  A    between atoms: _353  and  _354
REMARK  139  A    between atoms: _357  and  _359
REMARK  140  A    between atoms: _359  and  _360
REMARK  141  A    between atoms: _359  and  _362
REMARK  142  A    between atoms: _362  and  _363
REMARK  143  A    between atoms: _363  and  _364
REMARK  144  A    between atoms: _364  and  _365
REMARK  145  A    between atoms: _365  and  _366
REMARK  146  A    between atoms: _370  and  _372
REMARK  147  A    between atoms: _372  and  _373
REMARK  148  A    between atoms: _372  and  _375
REMARK  149  A    between atoms: _375  and  _376
REMARK  150  A    between atoms: _379  and  _381
REMARK  151  A    between atoms: _381  and  _382
REMARK  152  A    between atoms: _381  and  _384
REMARK  153  A    between atoms: _384  and  _385
REMARK  154  A    between atoms: _390  and  _391
REMARK  155  A    between atoms: _393  and  _395
REMARK  156  A    between atoms: _395  and  _396
REMARK  157  A    between atoms: _395  and  _398
REMARK  158  A    between atoms: _398  and  _399
REMARK  159  A    between atoms: _399  and  _400
REMARK  160  A    between atoms: _405  and  _407
REMARK  161  A    between atoms: _407  and  _408
REMARK  162  A    between atoms: _407  and  _410
REMARK  163  A    between atoms: _410  and  _411
REMARK  164  A    between atoms: _414  and  _416
REMARK  165  A    between atoms: _416  and  _417
REMARK  166  A    between atoms: _416  and  _419
REMARK  167  A    between atoms: _419  and  _420
REMARK  168  A    between atoms: _423  and  _425
REMARK  169  A    between atoms: _425  and  _426
REMARK  170  A    between atoms: _425  and  _428
REMARK  171  A    between atoms: _431  and  _433
REMARK  172  A    between atoms: _433  and  _434
REMARK  173  A    between atoms: _436  and  _438
REMARK  174  A    between atoms: _438  and  _439
REMARK  175  A    between atoms: _438  and  _441
REMARK  176  A    between atoms: _445  and  _446
REMARK  177  A    between atoms: _451  and  _453
REMARK  178  A    between atoms: _453  and  _454
REMARK  179  A    between atoms: _453  and  _456
REMARK  180  A    between atoms: _456  and  _457
REMARK  181  A    between atoms: _460  and  _462
REMARK  182  A    between atoms: _462  and  _463
REMARK  183  A    between atoms: _462  and  _465
REMARK  184  A    between atoms: _468  and  _470
REMARK  185  A    between atoms: _470  and  _471
REMARK  186  A    between atoms: _470  and  _473
REMARK  187  A    between atoms: _473  and  _474
REMARK  188  A    between atoms: _474  and  _475
REMARK  189  A    between atoms: _475  and  _476
REMARK  190  A    between atoms: _485  and  _487
REMARK  191  A    between atoms: _487  and  _488
REMARK  192  A    between atoms: _487  and  _490
REMARK  193  A    between atoms: _490  and  _491
REMARK  194  A    between atoms: _491  and  _492
REMARK  195  A    between atoms: _495  and  _497
REMARK  196  A    between atoms: _497  and  _498
REMARK  197  A    between atoms: _497  and  _500
REMARK  198  A    between atoms: _500  and  _501
REMARK  199  A    between atoms: _504  and  _506
REMARK  200  A    between atoms: _506  and  _507
REMARK  201  A    between atoms: _510  and  _512
REMARK  202  A    between atoms: _512  and  _513
REMARK  203  A    between atoms: _512  and  _515
REMARK  204  A    between atoms: _515  and  _516
REMARK  205  A    between atoms: _516  and  _517
REMARK  206  A    between atoms: _519  and  _521
REMARK  207  A    between atoms: _521  and  _522
REMARK  208  A    between atoms: _521  and  _524
REMARK  209  A    between atoms: _524  and  _525
REMARK  210  A    between atoms: _527  and  _529
REMARK  211  A    between atoms: _529  and  _530
REMARK  212  A    between atoms: _529  and  _532
REMARK  213  A    between atoms: _532  and  _533
REMARK  214  A    between atoms: _535  and  _537
REMARK  215  A    between atoms: _537  and  _538
REMARK  216  A    between atoms: _537  and  _540
REMARK  217  A    between atoms: _540  and  _541
REMARK  218  A    between atoms: _541  and  _542
REMARK  219  A    between atoms: _542  and  _543
REMARK  220  A    between atoms: _552  and  _554
REMARK  221  A    between atoms: _554  and  _555
REMARK  222  A    between atoms: _554  and  _557
REMARK  223  A    between atoms: _557  and  _558
REMARK  224  A    between atoms: _563  and  _565
REMARK  225  A    between atoms: _565  and  _566
REMARK  226  A    between atoms: _565  and  _568
REMARK  227  A    between atoms: _568  and  _569
REMARK  228  A    between atoms: _572  and  _574
REMARK  229  A    between atoms: _574  and  _575
REMARK  230  A    between atoms: _574  and  _577
REMARK  231  A    between atoms: _577  and  _578
REMARK  232  A    between atoms: _581  and  _583
REMARK  233  A    between atoms: _583  and  _584
REMARK  234  A    between atoms: _583  and  _586
REMARK  235  A    between atoms: _586  and  _587
REMARK                            x       y       z     vdW  Elec       q    Type
REMARK                         _______ _______ _______ _____ _____    ______ ____
ROOT
ATOM      1  O   HOH     1      21.903  11.520   1.513  0.00  0.00    +0.000 OA
ENDROOT
TORSDOF 0
