REMARK  Name = ../refined-set-2016/2ylc/2ylc_pocket.pdb
REMARK  120 active torsions:
REMARK  status: ('A' for Active; 'I' for Inactive)
REMARK    1  A    between atoms: _1  and  _3
REMARK    2  A    between atoms: _3  and  _4
REMARK    3  A    between atoms: _3  and  _6
REMARK    4  A    between atoms: _6  and  _7
REMARK    5  A    between atoms: _10  and  _12
REMARK    6  A    between atoms: _12  and  _13
REMARK    7  A    between atoms: _12  and  _15
REMARK    8  A    between atoms: _15  and  _16
REMARK    9  A    between atoms: _16  and  _17
REMARK   10  A    between atoms: _22  and  _24
REMARK   11  A    between atoms: _24  and  _25
REMARK   12  A    between atoms: _24  and  _27
REMARK   13  A    between atoms: _27  and  _28
REMARK   14  A    between atoms: _34  and  _36
REMARK   15  A    between atoms: _36  and  _37
REMARK   16  A    between atoms: _36  and  _39
REMARK   17  A    between atoms: _42  and  _44
REMARK   18  A    between atoms: _44  and  _45
REMARK   19  A    between atoms: _44  and  _47
REMARK   20  A    between atoms: _47  and  _48
REMARK   21  A    between atoms: _48  and  _49
REMARK   22  A    between atoms: _51  and  _53
REMARK   23  A    between atoms: _53  and  _54
REMARK   24  A    between atoms: _53  and  _56
REMARK   25  A    between atoms: _59  and  _61
REMARK   26  A    between atoms: _61  and  _62
REMARK   27  A    between atoms: _61  and  _64
REMARK   28  A    between atoms: _64  and  _65
REMARK   29  A    between atoms: _70  and  _71
REMARK   30  A    between atoms: _73  and  _75
REMARK   31  A    between atoms: _75  and  _76
REMARK   32  A    between atoms: _75  and  _78
REMARK   33  A    between atoms: _78  and  _79
REMARK   34  A    between atoms: _79  and  _80
REMARK   35  A    between atoms: _80  and  _81
REMARK   36  A    between atoms: _81  and  _82
REMARK   37  A    between atoms: _86  and  _88
REMARK   38  A    between atoms: _88  and  _89
REMARK   39  A    between atoms: _88  and  _91
REMARK   40  A    between atoms: _91  and  _92
REMARK   41  A    between atoms: _97  and  _99
REMARK   42  A    between atoms: _99  and  _100
REMARK   43  A    between atoms: _103  and  _105
REMARK   44  A    between atoms: _105  and  _106
REMARK   45  A    between atoms: _105  and  _108
REMARK   46  A    between atoms: _108  and  _109
REMARK   47  A    between atoms: _115  and  _117
REMARK   48  A    between atoms: _117  and  _118
REMARK   49  A    between atoms: _117  and  _120
REMARK   50  A    between atoms: _120  and  _121
REMARK   51  A    between atoms: _121  and  _122
REMARK   52  A    between atoms: _122  and  _123
REMARK   53  A    between atoms: _123  and  _124
REMARK   54  A    between atoms: _128  and  _130
REMARK   55  A    between atoms: _130  and  _131
REMARK   56  A    between atoms: _130  and  _133
REMARK   57  A    between atoms: _133  and  _134
REMARK   58  A    between atoms: _139  and  _141
REMARK   59  A    between atoms: _141  and  _142
REMARK   60  A    between atoms: _141  and  _144
REMARK   61  A    between atoms: _144  and  _145
REMARK   62  A    between atoms: _150  and  _152
REMARK   63  A    between atoms: _152  and  _153
REMARK   64  A    between atoms: _152  and  _155
REMARK   65  A    between atoms: _155  and  _156
REMARK   66  A    between atoms: _158  and  _160
REMARK   67  A    between atoms: _160  and  _161
REMARK   68  A    between atoms: _160  and  _163
REMARK   69  A    between atoms: _163  and  _164
REMARK   70  A    between atoms: _164  and  _165
REMARK   71  A    between atoms: _170  and  _172
REMARK   72  A    between atoms: _172  and  _173
REMARK   73  A    between atoms: _172  and  _175
REMARK   74  A    between atoms: _175  and  _176
REMARK   75  A    between atoms: _179  and  _181
REMARK   76  A    between atoms: _181  and  _182
REMARK   77  A    between atoms: _181  and  _184
REMARK   78  A    between atoms: _184  and  _185
REMARK   79  A    between atoms: _188  and  _190
REMARK   80  A    between atoms: _190  and  _191
REMARK   81  A    between atoms: _190  and  _193
REMARK   82  A    between atoms: _193  and  _194
REMARK   83  A    between atoms: _200  and  _202
REMARK   84  A    between atoms: _202  and  _203
REMARK   85  A    between atoms: _202  and  _205
REMARK   86  A    between atoms: _205  and  _206
REMARK   87  A    between atoms: _209  and  _211
REMARK   88  A    between atoms: _211  and  _212
REMARK   89  A    between atoms: _211  and  _214
REMARK   90  A    between atoms: _214  and  _215
REMARK   91  A    between atoms: _215  and  _216
REMARK   92  A    between atoms: _221  and  _223
REMARK   93  A    between atoms: _223  and  _224
REMARK   94  A    between atoms: _223  and  _226
REMARK   95  A    between atoms: _226  and  _227
REMARK   96  A    between atoms: _233  and  _235
REMARK   97  A    between atoms: _235  and  _236
REMARK   98  A    between atoms: _235  and  _238
REMARK   99  A    between atoms: _241  and  _243
REMARK  100  A    between atoms: _243  and  _244
REMARK  101  A    between atoms: _243  and  _246
REMARK  102  A    between atoms: _246  and  _247
REMARK  103  A    between atoms: _252  and  _253
REMARK  104  A    between atoms: _255  and  _257
REMARK  105  A    between atoms: _257  and  _258
REMARK  106  A    between atoms: _257  and  _260
REMARK  107  A    between atoms: _260  and  _261
REMARK  108  A    between atoms: _261  and  _262
REMARK  109  A    between atoms: _262  and  _263
REMARK  110  A    between atoms: _263  and  _264
REMARK  111  A    between atoms: _268  and  _270
REMARK  112  A    between atoms: _270  and  _271
REMARK  113  A    between atoms: _270  and  _273
REMARK  114  A    between atoms: _273  and  _274
REMARK  115  A    between atoms: _279  and  _281
REMARK  116  A    between atoms: _281  and  _282
REMARK  117  A    between atoms: _285  and  _287
REMARK  118  A    between atoms: _287  and  _288
REMARK  119  A    between atoms: _287  and  _290
REMARK  120  A    between atoms: _290  and  _291
REMARK                            x       y       z     vdW  Elec       q    Type
REMARK                         _______ _______ _______ _____ _____    ______ ____
ROOT
ATOM      1  C   GLN A   2       6.904  -9.751 -14.908  0.00  0.00    +0.241 C 
ATOM      2  N   PHE A   3       6.021 -10.549 -14.313  0.00  0.00    -0.297 N 
ATOM      3  H   PHE A   3       5.845 -11.495 -14.709  0.00  0.00    +0.150 HD
ATOM      4  O   GLN A   2       7.261  -8.666 -14.423  0.00  0.00    -0.273 OA
ENDROOT
BRANCH   2   5
ATOM      5  CA  PHE A   3       5.295 -10.131 -13.121  0.00  0.00    +0.153 C 
BRANCH   5   6
ATOM      6  C   PHE A   3       5.599 -10.851 -11.817  0.00  0.00    +0.241 C 
ATOM      7  O   PHE A   3       5.215 -10.382 -10.753  0.00  0.00    -0.273 OA
ATOM      8  N   VAL A   4       6.226 -12.028 -11.891  0.00  0.00    -0.298 N 
ATOM      9  H   VAL A   4       6.571 -12.377 -12.808  0.00  0.00    +0.150 HD
BRANCH   8  10
ATOM     10  CA  VAL A   4       6.427 -12.825 -10.682  0.00  0.00    +0.137 C 
BRANCH  10  11
ATOM     11  CB  VAL A   4       5.422 -14.012 -10.553  0.00  0.00    +0.026 C 
ATOM     12  CG2 VAL A   4       3.993 -13.522 -10.660  0.00  0.00    +0.002 C 
ATOM     13  CG1 VAL A   4       5.717 -15.125 -11.567  0.00  0.00    +0.002 C 
ENDBRANCH  10  11
BRANCH  10  14
ATOM     14  C   VAL A   4       7.865 -13.381 -10.598  0.00  0.00    +0.227 C 
ATOM     15  O   VAL A   4       8.568 -13.478 -11.611  0.00  0.00    -0.286 OA
ENDBRANCH  10  14
ENDBRANCH   8  10
ENDBRANCH   5   6
BRANCH   5  16
ATOM     16  CB  PHE A   3       3.785 -10.217 -13.374  0.00  0.00    +0.055 C 
BRANCH  16  17
ATOM     17  CG  PHE A   3       3.300  -9.241 -14.413  0.00  0.00    -0.020 A 
ATOM     18  CD2 PHE A   3       3.476  -7.870 -14.242  0.00  0.00    -0.004 A 
ATOM     19  CE2 PHE A   3       3.027  -6.984 -15.182  0.00  0.00    -0.000 A 
ATOM     20  CZ  PHE A   3       2.436  -7.452 -16.338  0.00  0.00    -0.000 A 
ATOM     21  CE1 PHE A   3       2.241  -8.787 -16.510  0.00  0.00    -0.000 A 
ATOM     22  CD1 PHE A   3       2.715  -9.673 -15.574  0.00  0.00    -0.004 A 
ENDBRANCH  16  17
ENDBRANCH   5  16
ENDBRANCH   2   5
BRANCH   1  23
ATOM     23  CA  GLN A   2       7.436 -10.193 -16.275  0.00  0.00    +0.149 C 
BRANCH  23  26
ATOM     24  C   ASP A   1       8.625 -12.133 -15.452  0.00  0.00    +0.239 C 
ATOM     25  O   ASP A   1       9.153 -11.480 -14.544  0.00  0.00    -0.274 OA
ATOM     26  N   GLN A   2       7.769 -11.602 -16.299  0.00  0.00    -0.297 N 
ATOM     27  H   GLN A   2       7.317 -12.214 -17.008  0.00  0.00    +0.150 HD
BRANCH  24  28
ATOM     28  CA  ASP A   1       8.938 -13.615 -15.632  0.00  0.00    +0.156 C 
BRANCH  28  29
ATOM     29  N   ASP A   1       9.416 -14.121 -14.368  0.00  0.00    -0.238 NA
ATOM     30  H   ASP A   1       8.993 -13.781 -13.481  0.00  0.00    +0.142 HD
ENDBRANCH  28  29
BRANCH  28  31
ATOM     31  CB  ASP A   1       7.734 -14.453 -16.151  0.00  0.00    +0.140 C 
BRANCH  31  32
ATOM     32  CG  ASP A   1       6.473 -14.293 -15.327  0.00  0.00    +0.367 C 
ATOM     33  OD2 ASP A   1       6.442 -13.469 -14.430  0.00  0.00    -0.246 OA
ATOM     34  OD1 ASP A   1       5.484 -15.031 -15.568  0.00  0.00    -0.246 OA
ENDBRANCH  31  32
ENDBRANCH  28  31
ENDBRANCH  24  28
ENDBRANCH  23  26
BRANCH  23  35
ATOM     35  CB  GLN A   2       6.416  -9.941 -17.379  0.00  0.00    +0.039 C 
BRANCH  35  36
ATOM     36  CG  GLN A   2       5.996  -8.545 -17.504  0.00  0.00    +0.087 C 
BRANCH  36  37
ATOM     37  CD  GLN A   2       5.239  -8.324 -18.785  0.00  0.00    +0.219 C 
ATOM     38  OE1 GLN A   2       4.437  -9.156 -19.198  0.00  0.00    -0.275 OA
ATOM     39  NE2 GLN A   2       5.489  -7.209 -19.426  0.00  0.00    -0.329 N 
ATOM     40 HE21 GLN A   2       6.177  -6.531 -19.041  0.00  0.00    +0.145 HD
ATOM     41 HE22 GLN A   2       5.000  -7.002 -20.320  0.00  0.00    +0.145 HD
ENDBRANCH  36  37
ENDBRANCH  35  36
ENDBRANCH  23  35
ENDBRANCH   1  23
TORSDOF 16
REMARK  Name = ../refined-set-2016/2ylc/2ylc_pocket.pdb
REMARK  120 active torsions:
REMARK  status: ('A' for Active; 'I' for Inactive)
REMARK    1  A    between atoms: _1  and  _3
REMARK    2  A    between atoms: _3  and  _4
REMARK    3  A    between atoms: _3  and  _6
REMARK    4  A    between atoms: _6  and  _7
REMARK    5  A    between atoms: _10  and  _12
REMARK    6  A    between atoms: _12  and  _13
REMARK    7  A    between atoms: _12  and  _15
REMARK    8  A    between atoms: _15  and  _16
REMARK    9  A    between atoms: _16  and  _17
REMARK   10  A    between atoms: _22  and  _24
REMARK   11  A    between atoms: _24  and  _25
REMARK   12  A    between atoms: _24  and  _27
REMARK   13  A    between atoms: _27  and  _28
REMARK   14  A    between atoms: _34  and  _36
REMARK   15  A    between atoms: _36  and  _37
REMARK   16  A    between atoms: _36  and  _39
REMARK   17  A    between atoms: _42  and  _44
REMARK   18  A    between atoms: _44  and  _45
REMARK   19  A    between atoms: _44  and  _47
REMARK   20  A    between atoms: _47  and  _48
REMARK   21  A    between atoms: _48  and  _49
REMARK   22  A    between atoms: _51  and  _53
REMARK   23  A    between atoms: _53  and  _54
REMARK   24  A    between atoms: _53  and  _56
REMARK   25  A    between atoms: _59  and  _61
REMARK   26  A    between atoms: _61  and  _62
REMARK   27  A    between atoms: _61  and  _64
REMARK   28  A    between atoms: _64  and  _65
REMARK   29  A    between atoms: _70  and  _71
REMARK   30  A    between atoms: _73  and  _75
REMARK   31  A    between atoms: _75  and  _76
REMARK   32  A    between atoms: _75  and  _78
REMARK   33  A    between atoms: _78  and  _79
REMARK   34  A    between atoms: _79  and  _80
REMARK   35  A    between atoms: _80  and  _81
REMARK   36  A    between atoms: _81  and  _82
REMARK   37  A    between atoms: _86  and  _88
REMARK   38  A    between atoms: _88  and  _89
REMARK   39  A    between atoms: _88  and  _91
REMARK   40  A    between atoms: _91  and  _92
REMARK   41  A    between atoms: _97  and  _99
REMARK   42  A    between atoms: _99  and  _100
REMARK   43  A    between atoms: _103  and  _105
REMARK   44  A    between atoms: _105  and  _106
REMARK   45  A    between atoms: _105  and  _108
REMARK   46  A    between atoms: _108  and  _109
REMARK   47  A    between atoms: _115  and  _117
REMARK   48  A    between atoms: _117  and  _118
REMARK   49  A    between atoms: _117  and  _120
REMARK   50  A    between atoms: _120  and  _121
REMARK   51  A    between atoms: _121  and  _122
REMARK   52  A    between atoms: _122  and  _123
REMARK   53  A    between atoms: _123  and  _124
REMARK   54  A    between atoms: _128  and  _130
REMARK   55  A    between atoms: _130  and  _131
REMARK   56  A    between atoms: _130  and  _133
REMARK   57  A    between atoms: _133  and  _134
REMARK   58  A    between atoms: _139  and  _141
REMARK   59  A    between atoms: _141  and  _142
REMARK   60  A    between atoms: _141  and  _144
REMARK   61  A    between atoms: _144  and  _145
REMARK   62  A    between atoms: _150  and  _152
REMARK   63  A    between atoms: _152  and  _153
REMARK   64  A    between atoms: _152  and  _155
REMARK   65  A    between atoms: _155  and  _156
REMARK   66  A    between atoms: _158  and  _160
REMARK   67  A    between atoms: _160  and  _161
REMARK   68  A    between atoms: _160  and  _163
REMARK   69  A    between atoms: _163  and  _164
REMARK   70  A    between atoms: _164  and  _165
REMARK   71  A    between atoms: _170  and  _172
REMARK   72  A    between atoms: _172  and  _173
REMARK   73  A    between atoms: _172  and  _175
REMARK   74  A    between atoms: _175  and  _176
REMARK   75  A    between atoms: _179  and  _181
REMARK   76  A    between atoms: _181  and  _182
REMARK   77  A    between atoms: _181  and  _184
REMARK   78  A    between atoms: _184  and  _185
REMARK   79  A    between atoms: _188  and  _190
REMARK   80  A    between atoms: _190  and  _191
REMARK   81  A    between atoms: _190  and  _193
REMARK   82  A    between atoms: _193  and  _194
REMARK   83  A    between atoms: _200  and  _202
REMARK   84  A    between atoms: _202  and  _203
REMARK   85  A    between atoms: _202  and  _205
REMARK   86  A    between atoms: _205  and  _206
REMARK   87  A    between atoms: _209  and  _211
REMARK   88  A    between atoms: _211  and  _212
REMARK   89  A    between atoms: _211  and  _214
REMARK   90  A    between atoms: _214  and  _215
REMARK   91  A    between atoms: _215  and  _216
REMARK   92  A    between atoms: _221  and  _223
REMARK   93  A    between atoms: _223  and  _224
REMARK   94  A    between atoms: _223  and  _226
REMARK   95  A    between atoms: _226  and  _227
REMARK   96  A    between atoms: _233  and  _235
REMARK   97  A    between atoms: _235  and  _236
REMARK   98  A    between atoms: _235  and  _238
REMARK   99  A    between atoms: _241  and  _243
REMARK  100  A    between atoms: _243  and  _244
REMARK  101  A    between atoms: _243  and  _246
REMARK  102  A    between atoms: _246  and  _247
REMARK  103  A    between atoms: _252  and  _253
REMARK  104  A    between atoms: _255  and  _257
REMARK  105  A    between atoms: _257  and  _258
REMARK  106  A    between atoms: _257  and  _260
REMARK  107  A    between atoms: _260  and  _261
REMARK  108  A    between atoms: _261  and  _262
REMARK  109  A    between atoms: _262  and  _263
REMARK  110  A    between atoms: _263  and  _264
REMARK  111  A    between atoms: _268  and  _270
REMARK  112  A    between atoms: _270  and  _271
REMARK  113  A    between atoms: _270  and  _273
REMARK  114  A    between atoms: _273  and  _274
REMARK  115  A    between atoms: _279  and  _281
REMARK  116  A    between atoms: _281  and  _282
REMARK  117  A    between atoms: _285  and  _287
REMARK  118  A    between atoms: _287  and  _288
REMARK  119  A    between atoms: _287  and  _290
REMARK  120  A    between atoms: _290  and  _291
REMARK                            x       y       z     vdW  Elec       q    Type
REMARK                         _______ _______ _______ _____ _____    ______ ____
ROOT
ATOM      1  C   TYR A   3       5.219  -9.808  -6.968  0.00  0.00    +0.241 C 
ATOM      2  O   TYR A   3       5.419  -9.352  -5.854  0.00  0.00    -0.273 OA
ATOM      3  N   LYS A   4       5.823  -9.378  -8.065  0.00  0.00    -0.297 N 
ATOM      4  H   LYS A   4       5.608  -9.814  -8.984  0.00  0.00    +0.150 HD
ENDROOT
BRANCH   3   5
ATOM      5  CA  LYS A   4       6.790  -8.291  -7.979  0.00  0.00    +0.149 C 
BRANCH   5   6
ATOM      6  C   LYS A   4       6.187  -7.053  -7.341  0.00  0.00    +0.241 C 
ATOM      7  O   LYS A   4       6.888  -6.331  -6.622  0.00  0.00    -0.273 OA
ATOM      8  N   HIS A   5       4.905  -6.789  -7.586  0.00  0.00    -0.297 N 
ATOM      9  H   HIS A   5       4.342  -7.434  -8.177  0.00  0.00    +0.150 HD
BRANCH   8  10
ATOM     10  CA  HIS A   5       4.292  -5.585  -7.019  0.00  0.00    +0.155 C 
BRANCH  10  11
ATOM     11  C   HIS A   5       4.342  -5.568  -5.491  0.00  0.00    +0.241 C 
ATOM     12  O   HIS A   5       4.231  -4.522  -4.872  0.00  0.00    -0.273 OA
ATOM     13  N   ALA A   6       4.525  -6.731  -4.874  0.00  0.00    -0.298 N 
ATOM     14  H   ALA A   6       4.610  -7.596  -5.444  0.00  0.00    +0.150 HD
BRANCH  13  15
ATOM     15  CA  ALA A   6       4.610  -6.830  -3.428  0.00  0.00    +0.137 C 
ATOM     16  CB  ALA A   6       3.988  -8.146  -2.972  0.00  0.00    +0.030 C 
BRANCH  15  17
ATOM     17  C   ALA A   6       6.025  -6.741  -2.874  0.00  0.00    +0.227 C 
ATOM     18  O   ALA A   6       6.192  -6.712  -1.669  0.00  0.00    -0.286 OA
ENDBRANCH  15  17
ENDBRANCH  13  15
ENDBRANCH  10  11
BRANCH  10  19
ATOM     19  CB  HIS A   5       2.855  -5.397  -7.514  0.00  0.00    +0.076 C 
BRANCH  19  20
ATOM     20  CG  HIS A   5       1.922  -6.529  -7.219  0.00  0.00    +0.082 A 
ATOM     21  CD2 HIS A   5       1.471  -7.039  -6.050  0.00  0.00    +0.115 A 
ATOM     22  NE2 HIS A   5       0.598  -8.052  -6.369  0.00  0.00    -0.221 NA
ATOM     23  CE1 HIS A   5       0.547  -8.166  -7.683  0.00  0.00    +0.199 A 
ATOM     24  ND1 HIS A   5       1.341  -7.263  -8.221  0.00  0.00    -0.227 NA
ENDBRANCH  19  20
ENDBRANCH  10  19
ENDBRANCH   8  10
ENDBRANCH   5   6
BRANCH   5  25
ATOM     25  CB  LYS A   4       7.336  -7.941  -9.355  0.00  0.00    +0.029 C 
BRANCH  25  26
ATOM     26  CG  LYS A   4       8.237  -8.994  -9.940  0.00  0.00    +0.000 C 
BRANCH  26  27
ATOM     27  CD  LYS A   4       8.660  -8.603 -11.345  0.00  0.00    -0.024 C 
BRANCH  27  28
ATOM     28  CE  LYS A   4       9.551  -9.614 -11.985  0.00  0.00    -0.086 C 
BRANCH  28  29
ATOM     29  NZ  LYS A   4       9.925  -9.098 -13.300  0.00  0.00    +0.380 N 
ATOM     30  HZ1 LYS A   4      10.424  -8.192 -13.187  0.00  0.00    -0.089 HD
ATOM     31  HZ2 LYS A   4      10.549  -9.782 -13.775  0.00  0.00    -0.089 HD
ATOM     32  HZ3 LYS A   4       9.068  -8.954 -13.871  0.00  0.00    -0.089 HD
ENDBRANCH  28  29
ENDBRANCH  27  28
ENDBRANCH  26  27
ENDBRANCH  25  26
ENDBRANCH   5  25
ENDBRANCH   3   5
BRANCH   1  33
ATOM     33  CA  TYR A   3       4.238 -10.966  -7.180  0.00  0.00    +0.153 C 
BRANCH  33  35
ATOM     34  C   VAL A   2       5.577 -12.860  -6.454  0.00  0.00    +0.241 C 
ATOM     35  N   TYR A   3       4.515 -12.074  -6.265  0.00  0.00    -0.297 N 
ATOM     36  H   TYR A   3       3.879 -12.250  -5.461  0.00  0.00    +0.150 HD
ATOM     37  O   VAL A   2       6.253 -12.775  -7.466  0.00  0.00    -0.273 OA
BRANCH  34  38
ATOM     38  CA  VAL A   2       5.885 -13.878  -5.366  0.00  0.00    +0.148 C 
BRANCH  38  41
ATOM     39  C   MET A   1       4.904 -16.094  -5.791  0.00  0.00    +0.238 C 
ATOM     40  O   MET A   1       3.888 -15.834  -5.169  0.00  0.00    -0.274 OA
ATOM     41  N   VAL A   2       5.887 -15.213  -5.956  0.00  0.00    -0.297 N 
ATOM     42  H   VAL A   2       6.703 -15.491  -6.538  0.00  0.00    +0.150 HD
BRANCH  39  43
ATOM     43  CA  MET A   1       5.114 -17.476  -6.407  0.00  0.00    +0.146 C 
BRANCH  43  44
ATOM     44  N   MET A   1       5.189 -18.425  -5.310  0.00  0.00    -0.238 NA
ATOM     45  H   MET A   1       4.319 -18.858  -4.940  0.00  0.00    +0.142 HD
ENDBRANCH  43  44
BRANCH  43  46
ATOM     46  CB  MET A   1       3.982 -17.803  -7.380  0.00  0.00    +0.038 C 
BRANCH  46  47
ATOM     47  CG  MET A   1       3.984 -16.924  -8.611  0.00  0.00    +0.060 C 
BRANCH  47  48
ATOM     48  SD  MET A   1       2.592 -17.200  -9.701  0.00  0.00    -0.139 S 
ATOM     49  CE  MET A   1       1.349 -16.307  -8.800  0.00  0.00    +0.069 C 
ENDBRANCH  47  48
ENDBRANCH  46  47
ENDBRANCH  43  46
ENDBRANCH  39  43
ENDBRANCH  38  41
BRANCH  38  50
ATOM     50  CB  VAL A   2       7.248 -13.555  -4.734  0.00  0.00    +0.027 C 
ATOM     51  CG2 VAL A   2       7.788 -14.755  -3.882  0.00  0.00    +0.002 C 
ATOM     52  CG1 VAL A   2       7.173 -12.253  -3.894  0.00  0.00    +0.002 C 
ENDBRANCH  38  50
ENDBRANCH  34  38
ENDBRANCH  33  35
BRANCH  33  53
ATOM     53  CB  TYR A   3       2.811 -10.448  -7.016  0.00  0.00    +0.055 C 
BRANCH  53  54
ATOM     54  CG  TYR A   3       1.794 -11.355  -7.687  0.00  0.00    -0.020 A 
ATOM     55  CD2 TYR A   3       1.079 -12.317  -6.974  0.00  0.00    -0.001 A 
ATOM     56  CE2 TYR A   3       0.167 -13.142  -7.614  0.00  0.00    +0.036 A 
ATOM     57  CZ  TYR A   3      -0.012 -13.047  -8.977  0.00  0.00    +0.134 A 
ATOM     58  CE1 TYR A   3       0.689 -12.105  -9.706  0.00  0.00    +0.036 A 
ATOM     59  CD1 TYR A   3       1.594 -11.277  -9.060  0.00  0.00    -0.001 A 
BRANCH  57  60
ATOM     60  OH  TYR A   3      -0.874 -13.914  -9.612  0.00  0.00    -0.506 OA
ATOM     61  HH  TYR A   3      -0.887 -13.713 -10.581  0.00  0.00    +0.292 HD
ENDBRANCH  57  60
ENDBRANCH  53  54
ENDBRANCH  33  53
ENDBRANCH   1  33
TORSDOF 26
REMARK  Name = ../refined-set-2016/2ylc/2ylc_pocket.pdb
REMARK  120 active torsions:
REMARK  status: ('A' for Active; 'I' for Inactive)
REMARK    1  A    between atoms: _1  and  _3
REMARK    2  A    between atoms: _3  and  _4
REMARK    3  A    between atoms: _3  and  _6
REMARK    4  A    between atoms: _6  and  _7
REMARK    5  A    between atoms: _10  and  _12
REMARK    6  A    between atoms: _12  and  _13
REMARK    7  A    between atoms: _12  and  _15
REMARK    8  A    between atoms: _15  and  _16
REMARK    9  A    between atoms: _16  and  _17
REMARK   10  A    between atoms: _22  and  _24
REMARK   11  A    between atoms: _24  and  _25
REMARK   12  A    between atoms: _24  and  _27
REMARK   13  A    between atoms: _27  and  _28
REMARK   14  A    between atoms: _34  and  _36
REMARK   15  A    between atoms: _36  and  _37
REMARK   16  A    between atoms: _36  and  _39
REMARK   17  A    between atoms: _42  and  _44
REMARK   18  A    between atoms: _44  and  _45
REMARK   19  A    between atoms: _44  and  _47
REMARK   20  A    between atoms: _47  and  _48
REMARK   21  A    between atoms: _48  and  _49
REMARK   22  A    between atoms: _51  and  _53
REMARK   23  A    between atoms: _53  and  _54
REMARK   24  A    between atoms: _53  and  _56
REMARK   25  A    between atoms: _59  and  _61
REMARK   26  A    between atoms: _61  and  _62
REMARK   27  A    between atoms: _61  and  _64
REMARK   28  A    between atoms: _64  and  _65
REMARK   29  A    between atoms: _70  and  _71
REMARK   30  A    between atoms: _73  and  _75
REMARK   31  A    between atoms: _75  and  _76
REMARK   32  A    between atoms: _75  and  _78
REMARK   33  A    between atoms: _78  and  _79
REMARK   34  A    between atoms: _79  and  _80
REMARK   35  A    between atoms: _80  and  _81
REMARK   36  A    between atoms: _81  and  _82
REMARK   37  A    between atoms: _86  and  _88
REMARK   38  A    between atoms: _88  and  _89
REMARK   39  A    between atoms: _88  and  _91
REMARK   40  A    between atoms: _91  and  _92
REMARK   41  A    between atoms: _97  and  _99
REMARK   42  A    between atoms: _99  and  _100
REMARK   43  A    between atoms: _103  and  _105
REMARK   44  A    between atoms: _105  and  _106
REMARK   45  A    between atoms: _105  and  _108
REMARK   46  A    between atoms: _108  and  _109
REMARK   47  A    between atoms: _115  and  _117
REMARK   48  A    between atoms: _117  and  _118
REMARK   49  A    between atoms: _117  and  _120
REMARK   50  A    between atoms: _120  and  _121
REMARK   51  A    between atoms: _121  and  _122
REMARK   52  A    between atoms: _122  and  _123
REMARK   53  A    between atoms: _123  and  _124
REMARK   54  A    between atoms: _128  and  _130
REMARK   55  A    between atoms: _130  and  _131
REMARK   56  A    between atoms: _130  and  _133
REMARK   57  A    between atoms: _133  and  _134
REMARK   58  A    between atoms: _139  and  _141
REMARK   59  A    between atoms: _141  and  _142
REMARK   60  A    between atoms: _141  and  _144
REMARK   61  A    between atoms: _144  and  _145
REMARK   62  A    between atoms: _150  and  _152
REMARK   63  A    between atoms: _152  and  _153
REMARK   64  A    between atoms: _152  and  _155
REMARK   65  A    between atoms: _155  and  _156
REMARK   66  A    between atoms: _158  and  _160
REMARK   67  A    between atoms: _160  and  _161
REMARK   68  A    between atoms: _160  and  _163
REMARK   69  A    between atoms: _163  and  _164
REMARK   70  A    between atoms: _164  and  _165
REMARK   71  A    between atoms: _170  and  _172
REMARK   72  A    between atoms: _172  and  _173
REMARK   73  A    between atoms: _172  and  _175
REMARK   74  A    between atoms: _175  and  _176
REMARK   75  A    between atoms: _179  and  _181
REMARK   76  A    between atoms: _181  and  _182
REMARK   77  A    between atoms: _181  and  _184
REMARK   78  A    between atoms: _184  and  _185
REMARK   79  A    between atoms: _188  and  _190
REMARK   80  A    between atoms: _190  and  _191
REMARK   81  A    between atoms: _190  and  _193
REMARK   82  A    between atoms: _193  and  _194
REMARK   83  A    between atoms: _200  and  _202
REMARK   84  A    between atoms: _202  and  _203
REMARK   85  A    between atoms: _202  and  _205
REMARK   86  A    between atoms: _205  and  _206
REMARK   87  A    between atoms: _209  and  _211
REMARK   88  A    between atoms: _211  and  _212
REMARK   89  A    between atoms: _211  and  _214
REMARK   90  A    between atoms: _214  and  _215
REMARK   91  A    between atoms: _215  and  _216
REMARK   92  A    between atoms: _221  and  _223
REMARK   93  A    between atoms: _223  and  _224
REMARK   94  A    between atoms: _223  and  _226
REMARK   95  A    between atoms: _226  and  _227
REMARK   96  A    between atoms: _233  and  _235
REMARK   97  A    between atoms: _235  and  _236
REMARK   98  A    between atoms: _235  and  _238
REMARK   99  A    between atoms: _241  and  _243
REMARK  100  A    between atoms: _243  and  _244
REMARK  101  A    between atoms: _243  and  _246
REMARK  102  A    between atoms: _246  and  _247
REMARK  103  A    between atoms: _252  and  _253
REMARK  104  A    between atoms: _255  and  _257
REMARK  105  A    between atoms: _257  and  _258
REMARK  106  A    between atoms: _257  and  _260
REMARK  107  A    between atoms: _260  and  _261
REMARK  108  A    between atoms: _261  and  _262
REMARK  109  A    between atoms: _262  and  _263
REMARK  110  A    between atoms: _263  and  _264
REMARK  111  A    between atoms: _268  and  _270
REMARK  112  A    between atoms: _270  and  _271
REMARK  113  A    between atoms: _270  and  _273
REMARK  114  A    between atoms: _273  and  _274
REMARK  115  A    between atoms: _279  and  _281
REMARK  116  A    between atoms: _281  and  _282
REMARK  117  A    between atoms: _285  and  _287
REMARK  118  A    between atoms: _287  and  _288
REMARK  119  A    between atoms: _287  and  _290
REMARK  120  A    between atoms: _290  and  _291
REMARK                            x       y       z     vdW  Elec       q    Type
REMARK                         _______ _______ _______ _____ _____    ______ ____
ROOT
ATOM      1  CB  PHE A   1     -10.741   1.831 -13.374  0.00  0.00    +0.051 C 
ENDROOT
BRANCH   1   2
ATOM      2  CG  PHE A   1      -9.653   1.763 -14.413  0.00  0.00    -0.020 A 
ATOM      3  CD2 PHE A   1      -8.554   0.925 -14.242  0.00  0.00    -0.004 A 
ATOM      4  CE2 PHE A   1      -7.562   0.871 -15.182  0.00  0.00    -0.000 A 
ATOM      5  CZ  PHE A   1      -7.672   1.616 -16.338  0.00  0.00    -0.000 A 
ATOM      6  CE1 PHE A   1      -8.730   2.453 -16.510  0.00  0.00    -0.000 A 
ATOM      7  CD1 PHE A   1      -9.735   2.485 -15.574  0.00  0.00    -0.004 A 
ENDBRANCH   1   2
BRANCH   1   8
ATOM      8  CA  PHE A   1     -11.421   0.480 -13.121  0.00  0.00    +0.137 C 
BRANCH   8   9
ATOM      9  N   PHE A   1     -12.146   0.060 -14.313  0.00  0.00    -0.239 NA
ATOM     10  H   PHE A   1     -12.877   0.686 -14.709  0.00  0.00    +0.142 HD
ENDBRANCH   8   9
BRANCH   8  11
ATOM     11  C   PHE A   1     -12.197   0.577 -11.817  0.00  0.00    +0.224 C 
ATOM     12  O   PHE A   1     -11.599   0.675 -10.753  0.00  0.00    -0.287 OA
ENDBRANCH   8  11
ENDBRANCH   1   8
TORSDOF 4
REMARK  Name = ../refined-set-2016/2ylc/2ylc_pocket.pdb
REMARK  120 active torsions:
REMARK  status: ('A' for Active; 'I' for Inactive)
REMARK    1  A    between atoms: _1  and  _3
REMARK    2  A    between atoms: _3  and  _4
REMARK    3  A    between atoms: _3  and  _6
REMARK    4  A    between atoms: _6  and  _7
REMARK    5  A    between atoms: _10  and  _12
REMARK    6  A    between atoms: _12  and  _13
REMARK    7  A    between atoms: _12  and  _15
REMARK    8  A    between atoms: _15  and  _16
REMARK    9  A    between atoms: _16  and  _17
REMARK   10  A    between atoms: _22  and  _24
REMARK   11  A    between atoms: _24  and  _25
REMARK   12  A    between atoms: _24  and  _27
REMARK   13  A    between atoms: _27  and  _28
REMARK   14  A    between atoms: _34  and  _36
REMARK   15  A    between atoms: _36  and  _37
REMARK   16  A    between atoms: _36  and  _39
REMARK   17  A    between atoms: _42  and  _44
REMARK   18  A    between atoms: _44  and  _45
REMARK   19  A    between atoms: _44  and  _47
REMARK   20  A    between atoms: _47  and  _48
REMARK   21  A    between atoms: _48  and  _49
REMARK   22  A    between atoms: _51  and  _53
REMARK   23  A    between atoms: _53  and  _54
REMARK   24  A    between atoms: _53  and  _56
REMARK   25  A    between atoms: _59  and  _61
REMARK   26  A    between atoms: _61  and  _62
REMARK   27  A    between atoms: _61  and  _64
REMARK   28  A    between atoms: _64  and  _65
REMARK   29  A    between atoms: _70  and  _71
REMARK   30  A    between atoms: _73  and  _75
REMARK   31  A    between atoms: _75  and  _76
REMARK   32  A    between atoms: _75  and  _78
REMARK   33  A    between atoms: _78  and  _79
REMARK   34  A    between atoms: _79  and  _80
REMARK   35  A    between atoms: _80  and  _81
REMARK   36  A    between atoms: _81  and  _82
REMARK   37  A    between atoms: _86  and  _88
REMARK   38  A    between atoms: _88  and  _89
REMARK   39  A    between atoms: _88  and  _91
REMARK   40  A    between atoms: _91  and  _92
REMARK   41  A    between atoms: _97  and  _99
REMARK   42  A    between atoms: _99  and  _100
REMARK   43  A    between atoms: _103  and  _105
REMARK   44  A    between atoms: _105  and  _106
REMARK   45  A    between atoms: _105  and  _108
REMARK   46  A    between atoms: _108  and  _109
REMARK   47  A    between atoms: _115  and  _117
REMARK   48  A    between atoms: _117  and  _118
REMARK   49  A    between atoms: _117  and  _120
REMARK   50  A    between atoms: _120  and  _121
REMARK   51  A    between atoms: _121  and  _122
REMARK   52  A    between atoms: _122  and  _123
REMARK   53  A    between atoms: _123  and  _124
REMARK   54  A    between atoms: _128  and  _130
REMARK   55  A    between atoms: _130  and  _131
REMARK   56  A    between atoms: _130  and  _133
REMARK   57  A    between atoms: _133  and  _134
REMARK   58  A    between atoms: _139  and  _141
REMARK   59  A    between atoms: _141  and  _142
REMARK   60  A    between atoms: _141  and  _144
REMARK   61  A    between atoms: _144  and  _145
REMARK   62  A    between atoms: _150  and  _152
REMARK   63  A    between atoms: _152  and  _153
REMARK   64  A    between atoms: _152  and  _155
REMARK   65  A    between atoms: _155  and  _156
REMARK   66  A    between atoms: _158  and  _160
REMARK   67  A    between atoms: _160  and  _161
REMARK   68  A    between atoms: _160  and  _163
REMARK   69  A    between atoms: _163  and  _164
REMARK   70  A    between atoms: _164  and  _165
REMARK   71  A    between atoms: _170  and  _172
REMARK   72  A    between atoms: _172  and  _173
REMARK   73  A    between atoms: _172  and  _175
REMARK   74  A    between atoms: _175  and  _176
REMARK   75  A    between atoms: _179  and  _181
REMARK   76  A    between atoms: _181  and  _182
REMARK   77  A    between atoms: _181  and  _184
REMARK   78  A    between atoms: _184  and  _185
REMARK   79  A    between atoms: _188  and  _190
REMARK   80  A    between atoms: _190  and  _191
REMARK   81  A    between atoms: _190  and  _193
REMARK   82  A    between atoms: _193  and  _194
REMARK   83  A    between atoms: _200  and  _202
REMARK   84  A    between atoms: _202  and  _203
REMARK   85  A    between atoms: _202  and  _205
REMARK   86  A    between atoms: _205  and  _206
REMARK   87  A    between atoms: _209  and  _211
REMARK   88  A    between atoms: _211  and  _212
REMARK   89  A    between atoms: _211  and  _214
REMARK   90  A    between atoms: _214  and  _215
REMARK   91  A    between atoms: _215  and  _216
REMARK   92  A    between atoms: _221  and  _223
REMARK   93  A    between atoms: _223  and  _224
REMARK   94  A    between atoms: _223  and  _226
REMARK   95  A    between atoms: _226  and  _227
REMARK   96  A    between atoms: _233  and  _235
REMARK   97  A    between atoms: _235  and  _236
REMARK   98  A    between atoms: _235  and  _238
REMARK   99  A    between atoms: _241  and  _243
REMARK  100  A    between atoms: _243  and  _244
REMARK  101  A    between atoms: _243  and  _246
REMARK  102  A    between atoms: _246  and  _247
REMARK  103  A    between atoms: _252  and  _253
REMARK  104  A    between atoms: _255  and  _257
REMARK  105  A    between atoms: _257  and  _258
REMARK  106  A    between atoms: _257  and  _260
REMARK  107  A    between atoms: _260  and  _261
REMARK  108  A    between atoms: _261  and  _262
REMARK  109  A    between atoms: _262  and  _263
REMARK  110  A    between atoms: _263  and  _264
REMARK  111  A    between atoms: _268  and  _270
REMARK  112  A    between atoms: _270  and  _271
REMARK  113  A    between atoms: _270  and  _273
REMARK  114  A    between atoms: _273  and  _274
REMARK  115  A    between atoms: _279  and  _281
REMARK  116  A    between atoms: _281  and  _282
REMARK  117  A    between atoms: _285  and  _287
REMARK  118  A    between atoms: _287  and  _288
REMARK  119  A    between atoms: _287  and  _290
REMARK  120  A    between atoms: _290  and  _291
REMARK                            x       y       z     vdW  Elec       q    Type
REMARK                         _______ _______ _______ _____ _____    ______ ____
ROOT
ATOM      1  C   LYS A   1      -9.202  -1.832  -7.341  0.00  0.00    +0.238 C 
ATOM      2  O   LYS A   1      -8.927  -2.800  -6.622  0.00  0.00    -0.274 OA
ATOM      3  N   HIS A   2      -8.332  -0.853  -7.586  0.00  0.00    -0.298 N 
ATOM      4  H   HIS A   2      -8.609  -0.043  -8.176  0.00  0.00    +0.150 HD
ENDROOT
BRANCH   1   5
ATOM      5  CA  LYS A   1     -10.575  -1.735  -7.979  0.00  0.00    +0.145 C 
BRANCH   5   6
ATOM      6  N   LYS A   1     -11.033  -0.354  -8.065  0.00  0.00    -0.238 NA
ATOM      7  H   LYS A   1     -11.303   0.050  -8.984  0.00  0.00    +0.142 HD
ENDBRANCH   5   6
BRANCH   5   8
ATOM      8  CB  LYS A   1     -10.545  -2.383  -9.355  0.00  0.00    +0.026 C 
BRANCH   8   9
ATOM      9  CG  LYS A   1     -11.908  -2.636  -9.940  0.00  0.00    -0.000 C 
BRANCH   9  10
ATOM     10  CD  LYS A   1     -11.780  -3.198 -11.345  0.00  0.00    -0.024 C 
BRANCH  10  11
ATOM     11  CE  LYS A   1     -13.101  -3.464 -11.985  0.00  0.00    -0.086 C 
BRANCH  11  12
ATOM     12  NZ  LYS A   1     -12.842  -4.046 -13.300  0.00  0.00    +0.380 N 
ATOM     13  HZ1 LYS A   1     -12.307  -4.931 -13.187  0.00  0.00    -0.089 HD
ATOM     14  HZ2 LYS A   1     -13.746  -4.244 -13.774  0.00  0.00    -0.089 HD
ATOM     15  HZ3 LYS A   1     -12.289  -3.376 -13.871  0.00  0.00    -0.089 HD
ENDBRANCH  11  12
ENDBRANCH  10  11
ENDBRANCH   9  10
ENDBRANCH   8   9
ENDBRANCH   5   8
ENDBRANCH   1   5
BRANCH   3  16
ATOM     16  CA  HIS A   2      -6.983  -0.924  -7.019  0.00  0.00    +0.143 C 
BRANCH  16  17
ATOM     17  C   HIS A   2      -6.993  -0.976  -5.491  0.00  0.00    +0.227 C 
ATOM     18  O   HIS A   2      -6.032  -1.403  -4.872  0.00  0.00    -0.286 OA
ENDBRANCH  16  17
BRANCH  16  19
ATOM     19  CB  HIS A   2      -6.101   0.226  -7.514  0.00  0.00    +0.075 C 
BRANCH  19  20
ATOM     20  CG  HIS A   2      -6.615   1.600  -7.219  0.00  0.00    +0.082 A 
ATOM     21  CD2 HIS A   2      -6.832   2.246  -6.050  0.00  0.00    +0.115 A 
ATOM     22  NE2 HIS A   2      -7.272   3.508  -6.369  0.00  0.00    -0.221 NA
ATOM     23  CE1 HIS A   2      -7.346   3.609  -7.683  0.00  0.00    +0.199 A 
ATOM     24  ND1 HIS A   2      -6.960   2.470  -8.221  0.00  0.00    -0.227 NA
ENDBRANCH  19  20
ENDBRANCH  16  19
ENDBRANCH   3  16
TORSDOF 11
REMARK  Name = ../refined-set-2016/2ylc/2ylc_pocket.pdb
REMARK  120 active torsions:
REMARK  status: ('A' for Active; 'I' for Inactive)
REMARK    1  A    between atoms: _1  and  _3
REMARK    2  A    between atoms: _3  and  _4
REMARK    3  A    between atoms: _3  and  _6
REMARK    4  A    between atoms: _6  and  _7
REMARK    5  A    between atoms: _10  and  _12
REMARK    6  A    between atoms: _12  and  _13
REMARK    7  A    between atoms: _12  and  _15
REMARK    8  A    between atoms: _15  and  _16
REMARK    9  A    between atoms: _16  and  _17
REMARK   10  A    between atoms: _22  and  _24
REMARK   11  A    between atoms: _24  and  _25
REMARK   12  A    between atoms: _24  and  _27
REMARK   13  A    between atoms: _27  and  _28
REMARK   14  A    between atoms: _34  and  _36
REMARK   15  A    between atoms: _36  and  _37
REMARK   16  A    between atoms: _36  and  _39
REMARK   17  A    between atoms: _42  and  _44
REMARK   18  A    between atoms: _44  and  _45
REMARK   19  A    between atoms: _44  and  _47
REMARK   20  A    between atoms: _47  and  _48
REMARK   21  A    between atoms: _48  and  _49
REMARK   22  A    between atoms: _51  and  _53
REMARK   23  A    between atoms: _53  and  _54
REMARK   24  A    between atoms: _53  and  _56
REMARK   25  A    between atoms: _59  and  _61
REMARK   26  A    between atoms: _61  and  _62
REMARK   27  A    between atoms: _61  and  _64
REMARK   28  A    between atoms: _64  and  _65
REMARK   29  A    between atoms: _70  and  _71
REMARK   30  A    between atoms: _73  and  _75
REMARK   31  A    between atoms: _75  and  _76
REMARK   32  A    between atoms: _75  and  _78
REMARK   33  A    between atoms: _78  and  _79
REMARK   34  A    between atoms: _79  and  _80
REMARK   35  A    between atoms: _80  and  _81
REMARK   36  A    between atoms: _81  and  _82
REMARK   37  A    between atoms: _86  and  _88
REMARK   38  A    between atoms: _88  and  _89
REMARK   39  A    between atoms: _88  and  _91
REMARK   40  A    between atoms: _91  and  _92
REMARK   41  A    between atoms: _97  and  _99
REMARK   42  A    between atoms: _99  and  _100
REMARK   43  A    between atoms: _103  and  _105
REMARK   44  A    between atoms: _105  and  _106
REMARK   45  A    between atoms: _105  and  _108
REMARK   46  A    between atoms: _108  and  _109
REMARK   47  A    between atoms: _115  and  _117
REMARK   48  A    between atoms: _117  and  _118
REMARK   49  A    between atoms: _117  and  _120
REMARK   50  A    between atoms: _120  and  _121
REMARK   51  A    between atoms: _121  and  _122
REMARK   52  A    between atoms: _122  and  _123
REMARK   53  A    between atoms: _123  and  _124
REMARK   54  A    between atoms: _128  and  _130
REMARK   55  A    between atoms: _130  and  _131
REMARK   56  A    between atoms: _130  and  _133
REMARK   57  A    between atoms: _133  and  _134
REMARK   58  A    between atoms: _139  and  _141
REMARK   59  A    between atoms: _141  and  _142
REMARK   60  A    between atoms: _141  and  _144
REMARK   61  A    between atoms: _144  and  _145
REMARK   62  A    between atoms: _150  and  _152
REMARK   63  A    between atoms: _152  and  _153
REMARK   64  A    between atoms: _152  and  _155
REMARK   65  A    between atoms: _155  and  _156
REMARK   66  A    between atoms: _158  and  _160
REMARK   67  A    between atoms: _160  and  _161
REMARK   68  A    between atoms: _160  and  _163
REMARK   69  A    between atoms: _163  and  _164
REMARK   70  A    between atoms: _164  and  _165
REMARK   71  A    between atoms: _170  and  _172
REMARK   72  A    between atoms: _172  and  _173
REMARK   73  A    between atoms: _172  and  _175
REMARK   74  A    between atoms: _175  and  _176
REMARK   75  A    between atoms: _179  and  _181
REMARK   76  A    between atoms: _181  and  _182
REMARK   77  A    between atoms: _181  and  _184
REMARK   78  A    between atoms: _184  and  _185
REMARK   79  A    between atoms: _188  and  _190
REMARK   80  A    between atoms: _190  and  _191
REMARK   81  A    between atoms: _190  and  _193
REMARK   82  A    between atoms: _193  and  _194
REMARK   83  A    between atoms: _200  and  _202
REMARK   84  A    between atoms: _202  and  _203
REMARK   85  A    between atoms: _202  and  _205
REMARK   86  A    between atoms: _205  and  _206
REMARK   87  A    between atoms: _209  and  _211
REMARK   88  A    between atoms: _211  and  _212
REMARK   89  A    between atoms: _211  and  _214
REMARK   90  A    between atoms: _214  and  _215
REMARK   91  A    between atoms: _215  and  _216
REMARK   92  A    between atoms: _221  and  _223
REMARK   93  A    between atoms: _223  and  _224
REMARK   94  A    between atoms: _223  and  _226
REMARK   95  A    between atoms: _226  and  _227
REMARK   96  A    between atoms: _233  and  _235
REMARK   97  A    between atoms: _235  and  _236
REMARK   98  A    between atoms: _235  and  _238
REMARK   99  A    between atoms: _241  and  _243
REMARK  100  A    between atoms: _243  and  _244
REMARK  101  A    between atoms: _243  and  _246
REMARK  102  A    between atoms: _246  and  _247
REMARK  103  A    between atoms: _252  and  _253
REMARK  104  A    between atoms: _255  and  _257
REMARK  105  A    between atoms: _257  and  _258
REMARK  106  A    between atoms: _257  and  _260
REMARK  107  A    between atoms: _260  and  _261
REMARK  108  A    between atoms: _261  and  _262
REMARK  109  A    between atoms: _262  and  _263
REMARK  110  A    between atoms: _263  and  _264
REMARK  111  A    between atoms: _268  and  _270
REMARK  112  A    between atoms: _270  and  _271
REMARK  113  A    between atoms: _270  and  _273
REMARK  114  A    between atoms: _273  and  _274
REMARK  115  A    between atoms: _279  and  _281
REMARK  116  A    between atoms: _281  and  _282
REMARK  117  A    between atoms: _285  and  _287
REMARK  118  A    between atoms: _287  and  _288
REMARK  119  A    between atoms: _287  and  _290
REMARK  120  A    between atoms: _290  and  _291
REMARK                            x       y       z     vdW  Elec       q    Type
REMARK                         _______ _______ _______ _____ _____    ______ ____
ROOT
ATOM      1  CB  HIS A   1       6.101  -0.226  -7.514  0.00  0.00    +0.072 C 
ENDROOT
BRANCH   1   2
ATOM      2  CG  HIS A   1       6.615  -1.600  -7.219  0.00  0.00    +0.082 A 
ATOM      3  CD2 HIS A   1       6.832  -2.246  -6.050  0.00  0.00    +0.115 A 
ATOM      4  NE2 HIS A   1       7.272  -3.508  -6.369  0.00  0.00    -0.221 NA
ATOM      5  CE1 HIS A   1       7.346  -3.609  -7.683  0.00  0.00    +0.199 A 
ATOM      6  ND1 HIS A   1       6.960  -2.470  -8.221  0.00  0.00    -0.227 NA
ENDBRANCH   1   2
BRANCH   1   7
ATOM      7  CA  HIS A   1       6.983   0.924  -7.019  0.00  0.00    +0.139 C 
BRANCH   7   8
ATOM      8  N   HIS A   1       8.332   0.853  -7.586  0.00  0.00    -0.239 NA
ATOM      9  H   HIS A   1       8.609   0.043  -8.176  0.00  0.00    +0.142 HD
ENDBRANCH   7   8
BRANCH   7  10
ATOM     10  C   HIS A   1       6.993   0.976  -5.491  0.00  0.00    +0.224 C 
ATOM     11  O   HIS A   1       6.032   1.403  -4.872  0.00  0.00    -0.287 OA
ENDBRANCH   7  10
ENDBRANCH   1   7
TORSDOF 4
REMARK  Name = ../refined-set-2016/2ylc/2ylc_pocket.pdb
REMARK  120 active torsions:
REMARK  status: ('A' for Active; 'I' for Inactive)
REMARK    1  A    between atoms: _1  and  _3
REMARK    2  A    between atoms: _3  and  _4
REMARK    3  A    between atoms: _3  and  _6
REMARK    4  A    between atoms: _6  and  _7
REMARK    5  A    between atoms: _10  and  _12
REMARK    6  A    between atoms: _12  and  _13
REMARK    7  A    between atoms: _12  and  _15
REMARK    8  A    between atoms: _15  and  _16
REMARK    9  A    between atoms: _16  and  _17
REMARK   10  A    between atoms: _22  and  _24
REMARK   11  A    between atoms: _24  and  _25
REMARK   12  A    between atoms: _24  and  _27
REMARK   13  A    between atoms: _27  and  _28
REMARK   14  A    between atoms: _34  and  _36
REMARK   15  A    between atoms: _36  and  _37
REMARK   16  A    between atoms: _36  and  _39
REMARK   17  A    between atoms: _42  and  _44
REMARK   18  A    between atoms: _44  and  _45
REMARK   19  A    between atoms: _44  and  _47
REMARK   20  A    between atoms: _47  and  _48
REMARK   21  A    between atoms: _48  and  _49
REMARK   22  A    between atoms: _51  and  _53
REMARK   23  A    between atoms: _53  and  _54
REMARK   24  A    between atoms: _53  and  _56
REMARK   25  A    between atoms: _59  and  _61
REMARK   26  A    between atoms: _61  and  _62
REMARK   27  A    between atoms: _61  and  _64
REMARK   28  A    between atoms: _64  and  _65
REMARK   29  A    between atoms: _70  and  _71
REMARK   30  A    between atoms: _73  and  _75
REMARK   31  A    between atoms: _75  and  _76
REMARK   32  A    between atoms: _75  and  _78
REMARK   33  A    between atoms: _78  and  _79
REMARK   34  A    between atoms: _79  and  _80
REMARK   35  A    between atoms: _80  and  _81
REMARK   36  A    between atoms: _81  and  _82
REMARK   37  A    between atoms: _86  and  _88
REMARK   38  A    between atoms: _88  and  _89
REMARK   39  A    between atoms: _88  and  _91
REMARK   40  A    between atoms: _91  and  _92
REMARK   41  A    between atoms: _97  and  _99
REMARK   42  A    between atoms: _99  and  _100
REMARK   43  A    between atoms: _103  and  _105
REMARK   44  A    between atoms: _105  and  _106
REMARK   45  A    between atoms: _105  and  _108
REMARK   46  A    between atoms: _108  and  _109
REMARK   47  A    between atoms: _115  and  _117
REMARK   48  A    between atoms: _117  and  _118
REMARK   49  A    between atoms: _117  and  _120
REMARK   50  A    between atoms: _120  and  _121
REMARK   51  A    between atoms: _121  and  _122
REMARK   52  A    between atoms: _122  and  _123
REMARK   53  A    between atoms: _123  and  _124
REMARK   54  A    between atoms: _128  and  _130
REMARK   55  A    between atoms: _130  and  _131
REMARK   56  A    between atoms: _130  and  _133
REMARK   57  A    between atoms: _133  and  _134
REMARK   58  A    between atoms: _139  and  _141
REMARK   59  A    between atoms: _141  and  _142
REMARK   60  A    between atoms: _141  and  _144
REMARK   61  A    between atoms: _144  and  _145
REMARK   62  A    between atoms: _150  and  _152
REMARK   63  A    between atoms: _152  and  _153
REMARK   64  A    between atoms: _152  and  _155
REMARK   65  A    between atoms: _155  and  _156
REMARK   66  A    between atoms: _158  and  _160
REMARK   67  A    between atoms: _160  and  _161
REMARK   68  A    between atoms: _160  and  _163
REMARK   69  A    between atoms: _163  and  _164
REMARK   70  A    between atoms: _164  and  _165
REMARK   71  A    between atoms: _170  and  _172
REMARK   72  A    between atoms: _172  and  _173
REMARK   73  A    between atoms: _172  and  _175
REMARK   74  A    between atoms: _175  and  _176
REMARK   75  A    between atoms: _179  and  _181
REMARK   76  A    between atoms: _181  and  _182
REMARK   77  A    between atoms: _181  and  _184
REMARK   78  A    between atoms: _184  and  _185
REMARK   79  A    between atoms: _188  and  _190
REMARK   80  A    between atoms: _190  and  _191
REMARK   81  A    between atoms: _190  and  _193
REMARK   82  A    between atoms: _193  and  _194
REMARK   83  A    between atoms: _200  and  _202
REMARK   84  A    between atoms: _202  and  _203
REMARK   85  A    between atoms: _202  and  _205
REMARK   86  A    between atoms: _205  and  _206
REMARK   87  A    between atoms: _209  and  _211
REMARK   88  A    between atoms: _211  and  _212
REMARK   89  A    between atoms: _211  and  _214
REMARK   90  A    between atoms: _214  and  _215
REMARK   91  A    between atoms: _215  and  _216
REMARK   92  A    between atoms: _221  and  _223
REMARK   93  A    between atoms: _223  and  _224
REMARK   94  A    between atoms: _223  and  _226
REMARK   95  A    between atoms: _226  and  _227
REMARK   96  A    between atoms: _233  and  _235
REMARK   97  A    between atoms: _235  and  _236
REMARK   98  A    between atoms: _235  and  _238
REMARK   99  A    between atoms: _241  and  _243
REMARK  100  A    between atoms: _243  and  _244
REMARK  101  A    between atoms: _243  and  _246
REMARK  102  A    between atoms: _246  and  _247
REMARK  103  A    between atoms: _252  and  _253
REMARK  104  A    between atoms: _255  and  _257
REMARK  105  A    between atoms: _257  and  _258
REMARK  106  A    between atoms: _257  and  _260
REMARK  107  A    between atoms: _260  and  _261
REMARK  108  A    between atoms: _261  and  _262
REMARK  109  A    between atoms: _262  and  _263
REMARK  110  A    between atoms: _263  and  _264
REMARK  111  A    between atoms: _268  and  _270
REMARK  112  A    between atoms: _270  and  _271
REMARK  113  A    between atoms: _270  and  _273
REMARK  114  A    between atoms: _273  and  _274
REMARK  115  A    between atoms: _279  and  _281
REMARK  116  A    between atoms: _281  and  _282
REMARK  117  A    between atoms: _285  and  _287
REMARK  118  A    between atoms: _287  and  _288
REMARK  119  A    between atoms: _287  and  _290
REMARK  120  A    between atoms: _290  and  _291
REMARK                            x       y       z     vdW  Elec       q    Type
REMARK                         _______ _______ _______ _____ _____    ______ ____
ROOT
ATOM      1  CA  SER A   1       4.676 -16.451 -18.755  0.00  0.00    +0.163 C 
ENDROOT
BRANCH   1   2
ATOM      2  N   SER A   1       5.039 -16.604 -20.141  0.00  0.00    -0.237 NA
ATOM      3  H   SER A   1       4.953 -17.540 -20.585  0.00  0.00    +0.142 HD
ENDBRANCH   1   2
BRANCH   1   4
ATOM      4  C   SER A   1       5.138 -17.688 -17.989  0.00  0.00    +0.227 C 
ATOM      5  O   SER A   1       4.983 -18.817 -18.478  0.00  0.00    -0.287 OA
ENDBRANCH   1   4
BRANCH   1   6
ATOM      6  CB  SER A   1       3.139 -16.372 -18.717  0.00  0.00    +0.162 C 
BRANCH   6   7
ATOM      7  OG  SER A   1       2.609 -16.208 -17.430  0.00  0.00    -0.380 OA
ATOM      8  H   SER A   1       1.621 -16.166 -17.484  0.00  0.00    +0.211 HD
ENDBRANCH   6   7
ENDBRANCH   1   6
TORSDOF 4
REMARK  Name = ../refined-set-2016/2ylc/2ylc_pocket.pdb
REMARK  120 active torsions:
REMARK  status: ('A' for Active; 'I' for Inactive)
REMARK    1  A    between atoms: _1  and  _3
REMARK    2  A    between atoms: _3  and  _4
REMARK    3  A    between atoms: _3  and  _6
REMARK    4  A    between atoms: _6  and  _7
REMARK    5  A    between atoms: _10  and  _12
REMARK    6  A    between atoms: _12  and  _13
REMARK    7  A    between atoms: _12  and  _15
REMARK    8  A    between atoms: _15  and  _16
REMARK    9  A    between atoms: _16  and  _17
REMARK   10  A    between atoms: _22  and  _24
REMARK   11  A    between atoms: _24  and  _25
REMARK   12  A    between atoms: _24  and  _27
REMARK   13  A    between atoms: _27  and  _28
REMARK   14  A    between atoms: _34  and  _36
REMARK   15  A    between atoms: _36  and  _37
REMARK   16  A    between atoms: _36  and  _39
REMARK   17  A    between atoms: _42  and  _44
REMARK   18  A    between atoms: _44  and  _45
REMARK   19  A    between atoms: _44  and  _47
REMARK   20  A    between atoms: _47  and  _48
REMARK   21  A    between atoms: _48  and  _49
REMARK   22  A    between atoms: _51  and  _53
REMARK   23  A    between atoms: _53  and  _54
REMARK   24  A    between atoms: _53  and  _56
REMARK   25  A    between atoms: _59  and  _61
REMARK   26  A    between atoms: _61  and  _62
REMARK   27  A    between atoms: _61  and  _64
REMARK   28  A    between atoms: _64  and  _65
REMARK   29  A    between atoms: _70  and  _71
REMARK   30  A    between atoms: _73  and  _75
REMARK   31  A    between atoms: _75  and  _76
REMARK   32  A    between atoms: _75  and  _78
REMARK   33  A    between atoms: _78  and  _79
REMARK   34  A    between atoms: _79  and  _80
REMARK   35  A    between atoms: _80  and  _81
REMARK   36  A    between atoms: _81  and  _82
REMARK   37  A    between atoms: _86  and  _88
REMARK   38  A    between atoms: _88  and  _89
REMARK   39  A    between atoms: _88  and  _91
REMARK   40  A    between atoms: _91  and  _92
REMARK   41  A    between atoms: _97  and  _99
REMARK   42  A    between atoms: _99  and  _100
REMARK   43  A    between atoms: _103  and  _105
REMARK   44  A    between atoms: _105  and  _106
REMARK   45  A    between atoms: _105  and  _108
REMARK   46  A    between atoms: _108  and  _109
REMARK   47  A    between atoms: _115  and  _117
REMARK   48  A    between atoms: _117  and  _118
REMARK   49  A    between atoms: _117  and  _120
REMARK   50  A    between atoms: _120  and  _121
REMARK   51  A    between atoms: _121  and  _122
REMARK   52  A    between atoms: _122  and  _123
REMARK   53  A    between atoms: _123  and  _124
REMARK   54  A    between atoms: _128  and  _130
REMARK   55  A    between atoms: _130  and  _131
REMARK   56  A    between atoms: _130  and  _133
REMARK   57  A    between atoms: _133  and  _134
REMARK   58  A    between atoms: _139  and  _141
REMARK   59  A    between atoms: _141  and  _142
REMARK   60  A    between atoms: _141  and  _144
REMARK   61  A    between atoms: _144  and  _145
REMARK   62  A    between atoms: _150  and  _152
REMARK   63  A    between atoms: _152  and  _153
REMARK   64  A    between atoms: _152  and  _155
REMARK   65  A    between atoms: _155  and  _156
REMARK   66  A    between atoms: _158  and  _160
REMARK   67  A    between atoms: _160  and  _161
REMARK   68  A    between atoms: _160  and  _163
REMARK   69  A    between atoms: _163  and  _164
REMARK   70  A    between atoms: _164  and  _165
REMARK   71  A    between atoms: _170  and  _172
REMARK   72  A    between atoms: _172  and  _173
REMARK   73  A    between atoms: _172  and  _175
REMARK   74  A    between atoms: _175  and  _176
REMARK   75  A    between atoms: _179  and  _181
REMARK   76  A    between atoms: _181  and  _182
REMARK   77  A    between atoms: _181  and  _184
REMARK   78  A    between atoms: _184  and  _185
REMARK   79  A    between atoms: _188  and  _190
REMARK   80  A    between atoms: _190  and  _191
REMARK   81  A    between atoms: _190  and  _193
REMARK   82  A    between atoms: _193  and  _194
REMARK   83  A    between atoms: _200  and  _202
REMARK   84  A    between atoms: _202  and  _203
REMARK   85  A    between atoms: _202  and  _205
REMARK   86  A    between atoms: _205  and  _206
REMARK   87  A    between atoms: _209  and  _211
REMARK   88  A    between atoms: _211  and  _212
REMARK   89  A    between atoms: _211  and  _214
REMARK   90  A    between atoms: _214  and  _215
REMARK   91  A    between atoms: _215  and  _216
REMARK   92  A    between atoms: _221  and  _223
REMARK   93  A    between atoms: _223  and  _224
REMARK   94  A    between atoms: _223  and  _226
REMARK   95  A    between atoms: _226  and  _227
REMARK   96  A    between atoms: _233  and  _235
REMARK   97  A    between atoms: _235  and  _236
REMARK   98  A    between atoms: _235  and  _238
REMARK   99  A    between atoms: _241  and  _243
REMARK  100  A    between atoms: _243  and  _244
REMARK  101  A    between atoms: _243  and  _246
REMARK  102  A    between atoms: _246  and  _247
REMARK  103  A    between atoms: _252  and  _253
REMARK  104  A    between atoms: _255  and  _257
REMARK  105  A    between atoms: _257  and  _258
REMARK  106  A    between atoms: _257  and  _260
REMARK  107  A    between atoms: _260  and  _261
REMARK  108  A    between atoms: _261  and  _262
REMARK  109  A    between atoms: _262  and  _263
REMARK  110  A    between atoms: _263  and  _264
REMARK  111  A    between atoms: _268  and  _270
REMARK  112  A    between atoms: _270  and  _271
REMARK  113  A    between atoms: _270  and  _273
REMARK  114  A    between atoms: _273  and  _274
REMARK  115  A    between atoms: _279  and  _281
REMARK  116  A    between atoms: _281  and  _282
REMARK  117  A    between atoms: _285  and  _287
REMARK  118  A    between atoms: _287  and  _288
REMARK  119  A    between atoms: _287  and  _290
REMARK  120  A    between atoms: _290  and  _291
REMARK                            x       y       z     vdW  Elec       q    Type
REMARK                         _______ _______ _______ _____ _____    ______ ____
ROOT
ATOM      1  C   GLN A   1       1.633 -18.128 -14.255  0.00  0.00    +0.238 C 
ATOM      2  O   GLN A   1       1.000 -18.845 -13.464  0.00  0.00    -0.274 OA
ATOM      3  N   ASP A   2       1.353 -18.064 -15.550  0.00  0.00    -0.298 N 
ATOM      4  H   ASP A   2       1.959 -17.503 -16.183  0.00  0.00    +0.150 HD
ENDROOT
BRANCH   1   5
ATOM      5  CA  GLN A   1       2.807 -17.277 -13.768  0.00  0.00    +0.145 C 
BRANCH   5   6
ATOM      6  N   GLN A   1       3.979 -17.392 -14.603  0.00  0.00    -0.238 NA
ATOM      7  H   GLN A   1       4.376 -16.535 -15.039  0.00  0.00    +0.142 HD
ENDBRANCH   5   6
BRANCH   5   8
ATOM      8  CB  GLN A   1       2.378 -15.824 -13.734  0.00  0.00    +0.036 C 
BRANCH   8   9
ATOM      9  CG  GLN A   1       1.136 -15.586 -12.859  0.00  0.00    +0.087 C 
BRANCH   9  10
ATOM     10  CD  GLN A   1       0.561 -14.204 -12.899  0.00  0.00    +0.219 C 
ATOM     11  OE1 GLN A   1      -0.455 -13.964 -12.270  0.00  0.00    -0.275 OA
ATOM     12  NE2 GLN A   1       1.173 -13.297 -13.641  0.00  0.00    -0.329 N 
ATOM     13 HE21 GLN A   1       0.789 -12.333 -13.705  0.00  0.00    +0.145 HD
ATOM     14 HE22 GLN A   1       2.038 -13.548 -14.161  0.00  0.00    +0.145 HD
ENDBRANCH   9  10
ENDBRANCH   8   9
ENDBRANCH   5   8
ENDBRANCH   1   5
BRANCH   3  15
ATOM     15  CA  ASP A   2       0.200 -18.776 -16.093  0.00  0.00    +0.148 C 
BRANCH  15  16
ATOM     16  C   ASP A   2       0.355 -20.313 -15.918  0.00  0.00    +0.227 C 
ATOM     17  O   ASP A   2      -0.524 -20.956 -15.381  0.00  0.00    -0.286 OA
ENDBRANCH  15  16
BRANCH  15  18
ATOM     18  CB  ASP A   2      -0.005 -18.347 -17.560  0.00  0.00    +0.142 C 
BRANCH  18  19
ATOM     19  CG  ASP A   2      -1.026 -19.159 -18.289  0.00  0.00    +0.367 C 
ATOM     20  OD2 ASP A   2      -2.213 -19.069 -17.973  0.00  0.00    -0.246 OA
ATOM     21  OD1 ASP A   2      -0.632 -19.864 -19.225  0.00  0.00    -0.246 OA
ENDBRANCH  18  19
ENDBRANCH  15  18
ENDBRANCH   3  15
TORSDOF 9
REMARK  Name = ../refined-set-2016/2ylc/2ylc_pocket.pdb
REMARK  120 active torsions:
REMARK  status: ('A' for Active; 'I' for Inactive)
REMARK    1  A    between atoms: _1  and  _3
REMARK    2  A    between atoms: _3  and  _4
REMARK    3  A    between atoms: _3  and  _6
REMARK    4  A    between atoms: _6  and  _7
REMARK    5  A    between atoms: _10  and  _12
REMARK    6  A    between atoms: _12  and  _13
REMARK    7  A    between atoms: _12  and  _15
REMARK    8  A    between atoms: _15  and  _16
REMARK    9  A    between atoms: _16  and  _17
REMARK   10  A    between atoms: _22  and  _24
REMARK   11  A    between atoms: _24  and  _25
REMARK   12  A    between atoms: _24  and  _27
REMARK   13  A    between atoms: _27  and  _28
REMARK   14  A    between atoms: _34  and  _36
REMARK   15  A    between atoms: _36  and  _37
REMARK   16  A    between atoms: _36  and  _39
REMARK   17  A    between atoms: _42  and  _44
REMARK   18  A    between atoms: _44  and  _45
REMARK   19  A    between atoms: _44  and  _47
REMARK   20  A    between atoms: _47  and  _48
REMARK   21  A    between atoms: _48  and  _49
REMARK   22  A    between atoms: _51  and  _53
REMARK   23  A    between atoms: _53  and  _54
REMARK   24  A    between atoms: _53  and  _56
REMARK   25  A    between atoms: _59  and  _61
REMARK   26  A    between atoms: _61  and  _62
REMARK   27  A    between atoms: _61  and  _64
REMARK   28  A    between atoms: _64  and  _65
REMARK   29  A    between atoms: _70  and  _71
REMARK   30  A    between atoms: _73  and  _75
REMARK   31  A    between atoms: _75  and  _76
REMARK   32  A    between atoms: _75  and  _78
REMARK   33  A    between atoms: _78  and  _79
REMARK   34  A    between atoms: _79  and  _80
REMARK   35  A    between atoms: _80  and  _81
REMARK   36  A    between atoms: _81  and  _82
REMARK   37  A    between atoms: _86  and  _88
REMARK   38  A    between atoms: _88  and  _89
REMARK   39  A    between atoms: _88  and  _91
REMARK   40  A    between atoms: _91  and  _92
REMARK   41  A    between atoms: _97  and  _99
REMARK   42  A    between atoms: _99  and  _100
REMARK   43  A    between atoms: _103  and  _105
REMARK   44  A    between atoms: _105  and  _106
REMARK   45  A    between atoms: _105  and  _108
REMARK   46  A    between atoms: _108  and  _109
REMARK   47  A    between atoms: _115  and  _117
REMARK   48  A    between atoms: _117  and  _118
REMARK   49  A    between atoms: _117  and  _120
REMARK   50  A    between atoms: _120  and  _121
REMARK   51  A    between atoms: _121  and  _122
REMARK   52  A    between atoms: _122  and  _123
REMARK   53  A    between atoms: _123  and  _124
REMARK   54  A    between atoms: _128  and  _130
REMARK   55  A    between atoms: _130  and  _131
REMARK   56  A    between atoms: _130  and  _133
REMARK   57  A    between atoms: _133  and  _134
REMARK   58  A    between atoms: _139  and  _141
REMARK   59  A    between atoms: _141  and  _142
REMARK   60  A    between atoms: _141  and  _144
REMARK   61  A    between atoms: _144  and  _145
REMARK   62  A    between atoms: _150  and  _152
REMARK   63  A    between atoms: _152  and  _153
REMARK   64  A    between atoms: _152  and  _155
REMARK   65  A    between atoms: _155  and  _156
REMARK   66  A    between atoms: _158  and  _160
REMARK   67  A    between atoms: _160  and  _161
REMARK   68  A    between atoms: _160  and  _163
REMARK   69  A    between atoms: _163  and  _164
REMARK   70  A    between atoms: _164  and  _165
REMARK   71  A    between atoms: _170  and  _172
REMARK   72  A    between atoms: _172  and  _173
REMARK   73  A    between atoms: _172  and  _175
REMARK   74  A    between atoms: _175  and  _176
REMARK   75  A    between atoms: _179  and  _181
REMARK   76  A    between atoms: _181  and  _182
REMARK   77  A    between atoms: _181  and  _184
REMARK   78  A    between atoms: _184  and  _185
REMARK   79  A    between atoms: _188  and  _190
REMARK   80  A    between atoms: _190  and  _191
REMARK   81  A    between atoms: _190  and  _193
REMARK   82  A    between atoms: _193  and  _194
REMARK   83  A    between atoms: _200  and  _202
REMARK   84  A    between atoms: _202  and  _203
REMARK   85  A    between atoms: _202  and  _205
REMARK   86  A    between atoms: _205  and  _206
REMARK   87  A    between atoms: _209  and  _211
REMARK   88  A    between atoms: _211  and  _212
REMARK   89  A    between atoms: _211  and  _214
REMARK   90  A    between atoms: _214  and  _215
REMARK   91  A    between atoms: _215  and  _216
REMARK   92  A    between atoms: _221  and  _223
REMARK   93  A    between atoms: _223  and  _224
REMARK   94  A    between atoms: _223  and  _226
REMARK   95  A    between atoms: _226  and  _227
REMARK   96  A    between atoms: _233  and  _235
REMARK   97  A    between atoms: _235  and  _236
REMARK   98  A    between atoms: _235  and  _238
REMARK   99  A    between atoms: _241  and  _243
REMARK  100  A    between atoms: _243  and  _244
REMARK  101  A    between atoms: _243  and  _246
REMARK  102  A    between atoms: _246  and  _247
REMARK  103  A    between atoms: _252  and  _253
REMARK  104  A    between atoms: _255  and  _257
REMARK  105  A    between atoms: _257  and  _258
REMARK  106  A    between atoms: _257  and  _260
REMARK  107  A    between atoms: _260  and  _261
REMARK  108  A    between atoms: _261  and  _262
REMARK  109  A    between atoms: _262  and  _263
REMARK  110  A    between atoms: _263  and  _264
REMARK  111  A    between atoms: _268  and  _270
REMARK  112  A    between atoms: _270  and  _271
REMARK  113  A    between atoms: _270  and  _273
REMARK  114  A    between atoms: _273  and  _274
REMARK  115  A    between atoms: _279  and  _281
REMARK  116  A    between atoms: _281  and  _282
REMARK  117  A    between atoms: _285  and  _287
REMARK  118  A    between atoms: _287  and  _288
REMARK  119  A    between atoms: _287  and  _290
REMARK  120  A    between atoms: _290  and  _291
REMARK                            x       y       z     vdW  Elec       q    Type
REMARK                         _______ _______ _______ _____ _____    ______ ____
ROOT
ATOM      1  CA  LEU A   1      -1.414 -21.132 -11.562  0.00  0.00    +0.133 C 
ENDROOT
BRANCH   1   2
ATOM      2  N   LEU A   1      -0.031 -21.180 -12.022  0.00  0.00    -0.239 NA
ATOM      3  H   LEU A   1       0.371 -20.368 -12.532  0.00  0.00    +0.142 HD
ENDBRANCH   1   2
BRANCH   1   4
ATOM      4  C   LEU A   1      -2.255 -22.236 -12.208  0.00  0.00    +0.224 C 
ATOM      5  O   LEU A   1      -3.147 -22.820 -11.585  0.00  0.00    -0.287 OA
ENDBRANCH   1   4
BRANCH   1   6
ATOM      6  CB  LEU A   1      -2.019 -19.761 -11.836  0.00  0.00    +0.025 C 
BRANCH   6   7
ATOM      7  CG  LEU A   1      -1.431 -18.604 -11.025  0.00  0.00    +0.002 C 
ATOM      8  CD2 LEU A   1      -1.589 -18.838  -9.534  0.00  0.00    +0.000 C 
ATOM      9  CD1 LEU A   1      -2.088 -17.286 -11.427  0.00  0.00    +0.000 C 
ENDBRANCH   6   7
ENDBRANCH   1   6
TORSDOF 4
REMARK  Name = ../refined-set-2016/2ylc/2ylc_pocket.pdb
REMARK  120 active torsions:
REMARK  status: ('A' for Active; 'I' for Inactive)
REMARK    1  A    between atoms: _1  and  _3
REMARK    2  A    between atoms: _3  and  _4
REMARK    3  A    between atoms: _3  and  _6
REMARK    4  A    between atoms: _6  and  _7
REMARK    5  A    between atoms: _10  and  _12
REMARK    6  A    between atoms: _12  and  _13
REMARK    7  A    between atoms: _12  and  _15
REMARK    8  A    between atoms: _15  and  _16
REMARK    9  A    between atoms: _16  and  _17
REMARK   10  A    between atoms: _22  and  _24
REMARK   11  A    between atoms: _24  and  _25
REMARK   12  A    between atoms: _24  and  _27
REMARK   13  A    between atoms: _27  and  _28
REMARK   14  A    between atoms: _34  and  _36
REMARK   15  A    between atoms: _36  and  _37
REMARK   16  A    between atoms: _36  and  _39
REMARK   17  A    between atoms: _42  and  _44
REMARK   18  A    between atoms: _44  and  _45
REMARK   19  A    between atoms: _44  and  _47
REMARK   20  A    between atoms: _47  and  _48
REMARK   21  A    between atoms: _48  and  _49
REMARK   22  A    between atoms: _51  and  _53
REMARK   23  A    between atoms: _53  and  _54
REMARK   24  A    between atoms: _53  and  _56
REMARK   25  A    between atoms: _59  and  _61
REMARK   26  A    between atoms: _61  and  _62
REMARK   27  A    between atoms: _61  and  _64
REMARK   28  A    between atoms: _64  and  _65
REMARK   29  A    between atoms: _70  and  _71
REMARK   30  A    between atoms: _73  and  _75
REMARK   31  A    between atoms: _75  and  _76
REMARK   32  A    between atoms: _75  and  _78
REMARK   33  A    between atoms: _78  and  _79
REMARK   34  A    between atoms: _79  and  _80
REMARK   35  A    between atoms: _80  and  _81
REMARK   36  A    between atoms: _81  and  _82
REMARK   37  A    between atoms: _86  and  _88
REMARK   38  A    between atoms: _88  and  _89
REMARK   39  A    between atoms: _88  and  _91
REMARK   40  A    between atoms: _91  and  _92
REMARK   41  A    between atoms: _97  and  _99
REMARK   42  A    between atoms: _99  and  _100
REMARK   43  A    between atoms: _103  and  _105
REMARK   44  A    between atoms: _105  and  _106
REMARK   45  A    between atoms: _105  and  _108
REMARK   46  A    between atoms: _108  and  _109
REMARK   47  A    between atoms: _115  and  _117
REMARK   48  A    between atoms: _117  and  _118
REMARK   49  A    between atoms: _117  and  _120
REMARK   50  A    between atoms: _120  and  _121
REMARK   51  A    between atoms: _121  and  _122
REMARK   52  A    between atoms: _122  and  _123
REMARK   53  A    between atoms: _123  and  _124
REMARK   54  A    between atoms: _128  and  _130
REMARK   55  A    between atoms: _130  and  _131
REMARK   56  A    between atoms: _130  and  _133
REMARK   57  A    between atoms: _133  and  _134
REMARK   58  A    between atoms: _139  and  _141
REMARK   59  A    between atoms: _141  and  _142
REMARK   60  A    between atoms: _141  and  _144
REMARK   61  A    between atoms: _144  and  _145
REMARK   62  A    between atoms: _150  and  _152
REMARK   63  A    between atoms: _152  and  _153
REMARK   64  A    between atoms: _152  and  _155
REMARK   65  A    between atoms: _155  and  _156
REMARK   66  A    between atoms: _158  and  _160
REMARK   67  A    between atoms: _160  and  _161
REMARK   68  A    between atoms: _160  and  _163
REMARK   69  A    between atoms: _163  and  _164
REMARK   70  A    between atoms: _164  and  _165
REMARK   71  A    between atoms: _170  and  _172
REMARK   72  A    between atoms: _172  and  _173
REMARK   73  A    between atoms: _172  and  _175
REMARK   74  A    between atoms: _175  and  _176
REMARK   75  A    between atoms: _179  and  _181
REMARK   76  A    between atoms: _181  and  _182
REMARK   77  A    between atoms: _181  and  _184
REMARK   78  A    between atoms: _184  and  _185
REMARK   79  A    between atoms: _188  and  _190
REMARK   80  A    between atoms: _190  and  _191
REMARK   81  A    between atoms: _190  and  _193
REMARK   82  A    between atoms: _193  and  _194
REMARK   83  A    between atoms: _200  and  _202
REMARK   84  A    between atoms: _202  and  _203
REMARK   85  A    between atoms: _202  and  _205
REMARK   86  A    between atoms: _205  and  _206
REMARK   87  A    between atoms: _209  and  _211
REMARK   88  A    between atoms: _211  and  _212
REMARK   89  A    between atoms: _211  and  _214
REMARK   90  A    between atoms: _214  and  _215
REMARK   91  A    between atoms: _215  and  _216
REMARK   92  A    between atoms: _221  and  _223
REMARK   93  A    between atoms: _223  and  _224
REMARK   94  A    between atoms: _223  and  _226
REMARK   95  A    between atoms: _226  and  _227
REMARK   96  A    between atoms: _233  and  _235
REMARK   97  A    between atoms: _235  and  _236
REMARK   98  A    between atoms: _235  and  _238
REMARK   99  A    between atoms: _241  and  _243
REMARK  100  A    between atoms: _243  and  _244
REMARK  101  A    between atoms: _243  and  _246
REMARK  102  A    between atoms: _246  and  _247
REMARK  103  A    between atoms: _252  and  _253
REMARK  104  A    between atoms: _255  and  _257
REMARK  105  A    between atoms: _257  and  _258
REMARK  106  A    between atoms: _257  and  _260
REMARK  107  A    between atoms: _260  and  _261
REMARK  108  A    between atoms: _261  and  _262
REMARK  109  A    between atoms: _262  and  _263
REMARK  110  A    between atoms: _263  and  _264
REMARK  111  A    between atoms: _268  and  _270
REMARK  112  A    between atoms: _270  and  _271
REMARK  113  A    between atoms: _270  and  _273
REMARK  114  A    between atoms: _273  and  _274
REMARK  115  A    between atoms: _279  and  _281
REMARK  116  A    between atoms: _281  and  _282
REMARK  117  A    between atoms: _285  and  _287
REMARK  118  A    between atoms: _287  and  _288
REMARK  119  A    between atoms: _287  and  _290
REMARK  120  A    between atoms: _290  and  _291
REMARK                            x       y       z     vdW  Elec       q    Type
REMARK                         _______ _______ _______ _____ _____    ______ ____
ROOT
ATOM      1  CA  GLN A   3      -5.109 -11.536 -16.275  0.00  0.00    +0.149 C 
ENDROOT
BRANCH   1   4
ATOM      2  C   ASP A   2      -6.195 -13.536 -15.452  0.00  0.00    +0.241 C 
ATOM      3  O   ASP A   2      -5.365 -13.667 -14.544  0.00  0.00    -0.273 OA
ATOM      4  N   GLN A   3      -6.163 -12.529 -16.299  0.00  0.00    -0.297 N 
ATOM      5  H   GLN A   3      -6.919 -12.444 -17.008  0.00  0.00    +0.150 HD
BRANCH   2   6
ATOM      6  CA  ASP A   2      -7.322 -14.548 -15.632  0.00  0.00    +0.160 C 
BRANCH   6   8
ATOM      7  C   PHE A   1      -7.811 -16.514 -14.334  0.00  0.00    +0.239 C 
ATOM      8  N   ASP A   2      -7.521 -15.215 -14.368  0.00  0.00    -0.297 N 
ATOM      9  H   ASP A   2      -7.438 -14.679 -13.481  0.00  0.00    +0.150 HD
ATOM     10  O   PHE A   1      -8.054 -17.168 -15.348  0.00  0.00    -0.274 OA
BRANCH   7  11
ATOM     11  CA  PHE A   1      -7.855 -17.131 -12.956  0.00  0.00    +0.149 C 
BRANCH  11  12
ATOM     12  N   PHE A   1      -8.572 -18.386 -13.055  0.00  0.00    -0.238 NA
ATOM     13  H   PHE A   1      -8.664 -18.844 -13.984  0.00  0.00    +0.142 HD
ENDBRANCH  11  12
BRANCH  11  14
ATOM     14  CB  PHE A   1      -6.423 -17.344 -12.446  0.00  0.00    +0.053 C 
BRANCH  14  15
ATOM     15  CG  PHE A   1      -5.570 -18.228 -13.345  0.00  0.00    -0.020 A 
ATOM     16  CD2 PHE A   1      -5.604 -19.623 -13.234  0.00  0.00    -0.004 A 
ATOM     17  CE2 PHE A   1      -4.816 -20.425 -14.056  0.00  0.00    -0.000 A 
ATOM     18  CZ  PHE A   1      -3.994 -19.840 -14.991  0.00  0.00    -0.000 A 
ATOM     19  CE1 PHE A   1      -3.945 -18.461 -15.105  0.00  0.00    -0.000 A 
ATOM     20  CD1 PHE A   1      -4.745 -17.651 -14.298  0.00  0.00    -0.004 A 
ENDBRANCH  14  15
ENDBRANCH  11  14
ENDBRANCH   7  11
ENDBRANCH   6   8
BRANCH   6  21
ATOM     21  CB  ASP A   2      -8.650 -13.924 -16.151  0.00  0.00    +0.143 C 
BRANCH  21  22
ATOM     22  CG  ASP A   2      -9.142 -12.752 -15.327  0.00  0.00    +0.367 C 
ATOM     23  OD2 ASP A   2      -8.444 -12.313 -14.430  0.00  0.00    -0.246 OA
ATOM     24  OD1 ASP A   2     -10.275 -12.265 -15.568  0.00  0.00    -0.246 OA
ENDBRANCH  21  22
ENDBRANCH   6  21
ENDBRANCH   2   6
ENDBRANCH   1   4
BRANCH   1  25
ATOM     25  C   GLN A   3      -4.993 -10.854 -14.908  0.00  0.00    +0.241 C 
ATOM     26  N   PHE A   4      -6.125 -10.489 -14.313  0.00  0.00    -0.297 N 
ATOM     27  H   PHE A   4      -7.032 -10.810 -14.708  0.00  0.00    +0.150 HD
ATOM     28  O   GLN A   3      -3.874 -10.621 -14.423  0.00  0.00    -0.273 OA
BRANCH  26  29
ATOM     29  CA  PHE A   4      -6.126  -9.651 -13.121  0.00  0.00    +0.153 C 
BRANCH  29  30
ATOM     30  C   PHE A   4      -6.598 -10.274 -11.817  0.00  0.00    +0.241 C 
ATOM     31  O   PHE A   4      -6.384  -9.707 -10.753  0.00  0.00    -0.273 OA
ATOM     32  N   VAL A   5      -7.304 -11.406 -11.891  0.00  0.00    -0.298 N 
ATOM     33  H   VAL A   5      -7.434 -11.879 -12.808  0.00  0.00    +0.150 HD
BRANCH  32  34
ATOM     34  CA  VAL A   5      -7.893 -11.978 -10.682  0.00  0.00    +0.137 C 
BRANCH  34  35
ATOM     35  CB  VAL A   5      -9.424 -11.702 -10.553  0.00  0.00    +0.026 C 
ATOM     36  CG2 VAL A   5      -9.714 -10.219 -10.660  0.00  0.00    +0.002 C 
ATOM     37  CG1 VAL A   5     -10.240 -12.514 -11.567  0.00  0.00    +0.002 C 
ENDBRANCH  34  35
BRANCH  34  38
ATOM     38  C   VAL A   5      -7.656 -13.502 -10.598  0.00  0.00    +0.227 C 
ATOM     39  O   VAL A   5      -7.388 -14.159 -11.611  0.00  0.00    -0.286 OA
ENDBRANCH  34  38
ENDBRANCH  32  34
ENDBRANCH  29  30
BRANCH  29  40
ATOM     40  CB  PHE A   4      -6.956  -8.386 -13.374  0.00  0.00    +0.055 C 
BRANCH  40  41
ATOM     41  CG  PHE A   4      -6.353  -7.478 -14.413  0.00  0.00    -0.020 A 
ATOM     42  CD2 PHE A   4      -5.078  -6.945 -14.242  0.00  0.00    -0.004 A 
ATOM     43  CE2 PHE A   4      -4.535  -6.114 -15.182  0.00  0.00    -0.000 A 
ATOM     44  CZ  PHE A   4      -5.236  -5.836 -16.338  0.00  0.00    -0.000 A 
ATOM     45  CE1 PHE A   4      -6.489  -6.334 -16.510  0.00  0.00    -0.000 A 
ATOM     46  CD1 PHE A   4      -7.020  -7.188 -15.574  0.00  0.00    -0.004 A 
ENDBRANCH  40  41
ENDBRANCH  29  40
ENDBRANCH  26  29
ENDBRANCH   1  25
BRANCH   1  47
ATOM     47  CB  GLN A   3      -5.401 -10.527 -17.379  0.00  0.00    +0.039 C 
BRANCH  47  48
ATOM     48  CG  GLN A   3      -4.402  -9.465 -17.504  0.00  0.00    +0.087 C 
BRANCH  48  49
ATOM     49  CD  GLN A   3      -4.589  -8.699 -18.785  0.00  0.00    +0.219 C 
ATOM     50  OE1 GLN A   3      -5.711  -8.421 -19.198  0.00  0.00    -0.275 OA
ATOM     51  NE2 GLN A   3      -3.499  -8.358 -19.426  0.00  0.00    -0.329 N 
ATOM     52 HE21 GLN A   3      -2.568  -8.614 -19.041  0.00  0.00    +0.145 HD
ATOM     53 HE22 GLN A   3      -3.565  -7.831 -20.320  0.00  0.00    +0.145 HD
ENDBRANCH  48  49
ENDBRANCH  47  48
ENDBRANCH   1  47
TORSDOF 20
REMARK  Name = ../refined-set-2016/2ylc/2ylc_pocket.pdb
REMARK  120 active torsions:
REMARK  status: ('A' for Active; 'I' for Inactive)
REMARK    1  A    between atoms: _1  and  _3
REMARK    2  A    between atoms: _3  and  _4
REMARK    3  A    between atoms: _3  and  _6
REMARK    4  A    between atoms: _6  and  _7
REMARK    5  A    between atoms: _10  and  _12
REMARK    6  A    between atoms: _12  and  _13
REMARK    7  A    between atoms: _12  and  _15
REMARK    8  A    between atoms: _15  and  _16
REMARK    9  A    between atoms: _16  and  _17
REMARK   10  A    between atoms: _22  and  _24
REMARK   11  A    between atoms: _24  and  _25
REMARK   12  A    between atoms: _24  and  _27
REMARK   13  A    between atoms: _27  and  _28
REMARK   14  A    between atoms: _34  and  _36
REMARK   15  A    between atoms: _36  and  _37
REMARK   16  A    between atoms: _36  and  _39
REMARK   17  A    between atoms: _42  and  _44
REMARK   18  A    between atoms: _44  and  _45
REMARK   19  A    between atoms: _44  and  _47
REMARK   20  A    between atoms: _47  and  _48
REMARK   21  A    between atoms: _48  and  _49
REMARK   22  A    between atoms: _51  and  _53
REMARK   23  A    between atoms: _53  and  _54
REMARK   24  A    between atoms: _53  and  _56
REMARK   25  A    between atoms: _59  and  _61
REMARK   26  A    between atoms: _61  and  _62
REMARK   27  A    between atoms: _61  and  _64
REMARK   28  A    between atoms: _64  and  _65
REMARK   29  A    between atoms: _70  and  _71
REMARK   30  A    between atoms: _73  and  _75
REMARK   31  A    between atoms: _75  and  _76
REMARK   32  A    between atoms: _75  and  _78
REMARK   33  A    between atoms: _78  and  _79
REMARK   34  A    between atoms: _79  and  _80
REMARK   35  A    between atoms: _80  and  _81
REMARK   36  A    between atoms: _81  and  _82
REMARK   37  A    between atoms: _86  and  _88
REMARK   38  A    between atoms: _88  and  _89
REMARK   39  A    between atoms: _88  and  _91
REMARK   40  A    between atoms: _91  and  _92
REMARK   41  A    between atoms: _97  and  _99
REMARK   42  A    between atoms: _99  and  _100
REMARK   43  A    between atoms: _103  and  _105
REMARK   44  A    between atoms: _105  and  _106
REMARK   45  A    between atoms: _105  and  _108
REMARK   46  A    between atoms: _108  and  _109
REMARK   47  A    between atoms: _115  and  _117
REMARK   48  A    between atoms: _117  and  _118
REMARK   49  A    between atoms: _117  and  _120
REMARK   50  A    between atoms: _120  and  _121
REMARK   51  A    between atoms: _121  and  _122
REMARK   52  A    between atoms: _122  and  _123
REMARK   53  A    between atoms: _123  and  _124
REMARK   54  A    between atoms: _128  and  _130
REMARK   55  A    between atoms: _130  and  _131
REMARK   56  A    between atoms: _130  and  _133
REMARK   57  A    between atoms: _133  and  _134
REMARK   58  A    between atoms: _139  and  _141
REMARK   59  A    between atoms: _141  and  _142
REMARK   60  A    between atoms: _141  and  _144
REMARK   61  A    between atoms: _144  and  _145
REMARK   62  A    between atoms: _150  and  _152
REMARK   63  A    between atoms: _152  and  _153
REMARK   64  A    between atoms: _152  and  _155
REMARK   65  A    between atoms: _155  and  _156
REMARK   66  A    between atoms: _158  and  _160
REMARK   67  A    between atoms: _160  and  _161
REMARK   68  A    between atoms: _160  and  _163
REMARK   69  A    between atoms: _163  and  _164
REMARK   70  A    between atoms: _164  and  _165
REMARK   71  A    between atoms: _170  and  _172
REMARK   72  A    between atoms: _172  and  _173
REMARK   73  A    between atoms: _172  and  _175
REMARK   74  A    between atoms: _175  and  _176
REMARK   75  A    between atoms: _179  and  _181
REMARK   76  A    between atoms: _181  and  _182
REMARK   77  A    between atoms: _181  and  _184
REMARK   78  A    between atoms: _184  and  _185
REMARK   79  A    between atoms: _188  and  _190
REMARK   80  A    between atoms: _190  and  _191
REMARK   81  A    between atoms: _190  and  _193
REMARK   82  A    between atoms: _193  and  _194
REMARK   83  A    between atoms: _200  and  _202
REMARK   84  A    between atoms: _202  and  _203
REMARK   85  A    between atoms: _202  and  _205
REMARK   86  A    between atoms: _205  and  _206
REMARK   87  A    between atoms: _209  and  _211
REMARK   88  A    between atoms: _211  and  _212
REMARK   89  A    between atoms: _211  and  _214
REMARK   90  A    between atoms: _214  and  _215
REMARK   91  A    between atoms: _215  and  _216
REMARK   92  A    between atoms: _221  and  _223
REMARK   93  A    between atoms: _223  and  _224
REMARK   94  A    between atoms: _223  and  _226
REMARK   95  A    between atoms: _226  and  _227
REMARK   96  A    between atoms: _233  and  _235
REMARK   97  A    between atoms: _235  and  _236
REMARK   98  A    between atoms: _235  and  _238
REMARK   99  A    between atoms: _241  and  _243
REMARK  100  A    between atoms: _243  and  _244
REMARK  101  A    between atoms: _243  and  _246
REMARK  102  A    between atoms: _246  and  _247
REMARK  103  A    between atoms: _252  and  _253
REMARK  104  A    between atoms: _255  and  _257
REMARK  105  A    between atoms: _257  and  _258
REMARK  106  A    between atoms: _257  and  _260
REMARK  107  A    between atoms: _260  and  _261
REMARK  108  A    between atoms: _261  and  _262
REMARK  109  A    between atoms: _262  and  _263
REMARK  110  A    between atoms: _263  and  _264
REMARK  111  A    between atoms: _268  and  _270
REMARK  112  A    between atoms: _270  and  _271
REMARK  113  A    between atoms: _270  and  _273
REMARK  114  A    between atoms: _273  and  _274
REMARK  115  A    between atoms: _279  and  _281
REMARK  116  A    between atoms: _281  and  _282
REMARK  117  A    between atoms: _285  and  _287
REMARK  118  A    between atoms: _287  and  _288
REMARK  119  A    between atoms: _287  and  _290
REMARK  120  A    between atoms: _290  and  _291
REMARK                            x       y       z     vdW  Elec       q    Type
REMARK                         _______ _______ _______ _____ _____    ______ ____
ROOT
ATOM      1  C   LYS A   2      -3.015  -8.885  -7.341  0.00  0.00    +0.241 C 
ATOM      2  O   LYS A   2      -2.039  -9.131  -6.622  0.00  0.00    -0.273 OA
ATOM      3  N   HIS A   3      -3.427  -7.642  -7.586  0.00  0.00    -0.297 N 
ATOM      4  H   HIS A   3      -4.267  -7.476  -8.177  0.00  0.00    +0.150 HD
ENDROOT
BRANCH   3   5
ATOM      5  CA  HIS A   3      -2.691  -6.510  -7.019  0.00  0.00    +0.155 C 
BRANCH   5   6
ATOM      6  C   HIS A   3      -2.651  -6.544  -5.491  0.00  0.00    +0.241 C 
ATOM      7  O   HIS A   3      -1.801  -5.925  -4.872  0.00  0.00    -0.273 OA
ATOM      8  N   ALA A   4      -3.567  -7.284  -4.874  0.00  0.00    -0.297 N 
ATOM      9  H   ALA A   4      -4.274  -7.790  -5.444  0.00  0.00    +0.150 HD
BRANCH   8  10
ATOM     10  CA  ALA A   4      -3.610  -7.407  -3.428  0.00  0.00    +0.149 C 
ATOM     11  CB  ALA A   4      -5.061  -7.527  -2.972  0.00  0.00    +0.031 C 
BRANCH  10  12
ATOM     12  C   ALA A   4      -2.825  -8.588  -2.874  0.00  0.00    +0.241 C 
ATOM     13  O   ALA A   4      -2.717  -8.718  -1.669  0.00  0.00    -0.273 OA
ATOM     14  N   ILE A   5      -2.314  -9.434  -3.754  0.00  0.00    -0.298 N 
ATOM     15  H   ILE A   5      -2.387  -9.210  -4.767  0.00  0.00    +0.150 HD
BRANCH  14  16
ATOM     16  CA  ILE A   5      -1.654 -10.665  -3.353  0.00  0.00    +0.137 C 
BRANCH  16  17
ATOM     17  CB  ILE A   5      -1.897 -11.761  -4.381  0.00  0.00    +0.026 C 
ATOM     18  CG2 ILE A   5      -1.065 -13.016  -4.027  0.00  0.00    +0.002 C 
BRANCH  17  19
ATOM     19  CG1 ILE A   5      -3.384 -12.084  -4.463  0.00  0.00    +0.002 C 
ATOM     20  CD1 ILE A   5      -3.743 -13.076  -5.566  0.00  0.00    +0.000 C 
ENDBRANCH  17  19
ENDBRANCH  16  17
BRANCH  16  21
ATOM     21  C   ILE A   5      -0.138 -10.406  -3.257  0.00  0.00    +0.227 C 
ATOM     22  O   ILE A   5       0.466  -9.800  -4.149  0.00  0.00    -0.286 OA
ENDBRANCH  16  21
ENDBRANCH  14  16
ENDBRANCH  10  12
ENDBRANCH   8  10
ENDBRANCH   5   6
BRANCH   5  23
ATOM     23  CB  HIS A   3      -3.246  -5.171  -7.514  0.00  0.00    +0.076 C 
BRANCH  23  24
ATOM     24  CG  HIS A   3      -4.693  -4.929  -7.219  0.00  0.00    +0.082 A 
ATOM     25  CD2 HIS A   3      -5.361  -4.793  -6.050  0.00  0.00    +0.115 A 
ATOM     26  NE2 HIS A   3      -6.674  -4.544  -6.369  0.00  0.00    -0.221 NA
ATOM     27  CE1 HIS A   3      -6.798  -4.557  -7.683  0.00  0.00    +0.199 A 
ATOM     28  ND1 HIS A   3      -5.619  -4.793  -8.221  0.00  0.00    -0.227 NA
ENDBRANCH  23  24
ENDBRANCH   5  23
ENDBRANCH   3   5
BRANCH   1  29
ATOM     29  CA  LYS A   2      -3.785 -10.026  -7.979  0.00  0.00    +0.149 C 
BRANCH  29  32
ATOM     30  C   TYR A   1      -5.885  -9.424  -6.968  0.00  0.00    +0.239 C 
ATOM     31  O   TYR A   1      -5.390  -9.369  -5.854  0.00  0.00    -0.274 OA
ATOM     32  N   LYS A   2      -5.210  -9.732  -8.065  0.00  0.00    -0.297 N 
ATOM     33  H   LYS A   2      -5.695  -9.764  -8.984  0.00  0.00    +0.150 HD
BRANCH  30  34
ATOM     34  CA  TYR A   1      -7.378  -9.153  -7.180  0.00  0.00    +0.149 C 
BRANCH  34  35
ATOM     35  N   TYR A   1      -8.199  -9.947  -6.265  0.00  0.00    -0.238 NA
ATOM     36  H   TYR A   1      -8.669  -9.485  -5.461  0.00  0.00    +0.142 HD
ENDBRANCH  34  35
BRANCH  34  37
ATOM     37  CB  TYR A   1      -7.643  -7.658  -7.016  0.00  0.00    +0.053 C 
BRANCH  37  38
ATOM     38  CG  TYR A   1      -8.937  -7.231  -7.687  0.00  0.00    -0.020 A 
ATOM     39  CD2 TYR A   1     -10.127  -7.093  -6.974  0.00  0.00    -0.001 A 
ATOM     40  CE2 TYR A   1     -11.298  -6.716  -7.614  0.00  0.00    +0.036 A 
ATOM     41  CZ  TYR A   1     -11.305  -6.513  -8.977  0.00  0.00    +0.134 A 
ATOM     42  CE1 TYR A   1     -10.139  -6.649  -9.706  0.00  0.00    +0.036 A 
ATOM     43  CD1 TYR A   1      -8.969  -7.019  -9.060  0.00  0.00    -0.001 A 
BRANCH  41  44
ATOM     44  OH  TYR A   1     -12.487  -6.200  -9.612  0.00  0.00    -0.506 OA
ATOM     45  HH  TYR A   1     -12.320  -6.088 -10.581  0.00  0.00    +0.292 HD
ENDBRANCH  41  44
ENDBRANCH  37  38
ENDBRANCH  34  37
ENDBRANCH  30  34
ENDBRANCH  29  32
BRANCH  29  46
ATOM     46  CB  LYS A   2      -3.209 -10.324  -9.355  0.00  0.00    +0.029 C 
BRANCH  46  47
ATOM     47  CG  LYS A   2      -3.671 -11.630  -9.940  0.00  0.00    +0.000 C 
BRANCH  47  48
ATOM     48  CD  LYS A   2      -3.120 -11.801 -11.345  0.00  0.00    -0.024 C 
BRANCH  48  49
ATOM     49  CE  LYS A   2      -3.550 -13.078 -11.985  0.00  0.00    -0.086 C 
BRANCH  49  50
ATOM     50  NZ  LYS A   2      -2.917 -13.144 -13.300  0.00  0.00    +0.380 N 
ATOM     51  HZ1 LYS A   2      -1.883 -13.123 -13.187  0.00  0.00    -0.089 HD
ATOM     52  HZ2 LYS A   2      -3.197 -14.026 -13.774  0.00  0.00    -0.089 HD
ATOM     53  HZ3 LYS A   2      -3.221 -12.330 -13.871  0.00  0.00    -0.089 HD
ENDBRANCH  49  50
ENDBRANCH  48  49
ENDBRANCH  47  48
ENDBRANCH  46  47
ENDBRANCH  29  46
ENDBRANCH   1  29
TORSDOF 22
REMARK  Name = ../refined-set-2016/2ylc/2ylc_pocket.pdb
REMARK  120 active torsions:
REMARK  status: ('A' for Active; 'I' for Inactive)
REMARK    1  A    between atoms: _1  and  _3
REMARK    2  A    between atoms: _3  and  _4
REMARK    3  A    between atoms: _3  and  _6
REMARK    4  A    between atoms: _6  and  _7
REMARK    5  A    between atoms: _10  and  _12
REMARK    6  A    between atoms: _12  and  _13
REMARK    7  A    between atoms: _12  and  _15
REMARK    8  A    between atoms: _15  and  _16
REMARK    9  A    between atoms: _16  and  _17
REMARK   10  A    between atoms: _22  and  _24
REMARK   11  A    between atoms: _24  and  _25
REMARK   12  A    between atoms: _24  and  _27
REMARK   13  A    between atoms: _27  and  _28
REMARK   14  A    between atoms: _34  and  _36
REMARK   15  A    between atoms: _36  and  _37
REMARK   16  A    between atoms: _36  and  _39
REMARK   17  A    between atoms: _42  and  _44
REMARK   18  A    between atoms: _44  and  _45
REMARK   19  A    between atoms: _44  and  _47
REMARK   20  A    between atoms: _47  and  _48
REMARK   21  A    between atoms: _48  and  _49
REMARK   22  A    between atoms: _51  and  _53
REMARK   23  A    between atoms: _53  and  _54
REMARK   24  A    between atoms: _53  and  _56
REMARK   25  A    between atoms: _59  and  _61
REMARK   26  A    between atoms: _61  and  _62
REMARK   27  A    between atoms: _61  and  _64
REMARK   28  A    between atoms: _64  and  _65
REMARK   29  A    between atoms: _70  and  _71
REMARK   30  A    between atoms: _73  and  _75
REMARK   31  A    between atoms: _75  and  _76
REMARK   32  A    between atoms: _75  and  _78
REMARK   33  A    between atoms: _78  and  _79
REMARK   34  A    between atoms: _79  and  _80
REMARK   35  A    between atoms: _80  and  _81
REMARK   36  A    between atoms: _81  and  _82
REMARK   37  A    between atoms: _86  and  _88
REMARK   38  A    between atoms: _88  and  _89
REMARK   39  A    between atoms: _88  and  _91
REMARK   40  A    between atoms: _91  and  _92
REMARK   41  A    between atoms: _97  and  _99
REMARK   42  A    between atoms: _99  and  _100
REMARK   43  A    between atoms: _103  and  _105
REMARK   44  A    between atoms: _105  and  _106
REMARK   45  A    between atoms: _105  and  _108
REMARK   46  A    between atoms: _108  and  _109
REMARK   47  A    between atoms: _115  and  _117
REMARK   48  A    between atoms: _117  and  _118
REMARK   49  A    between atoms: _117  and  _120
REMARK   50  A    between atoms: _120  and  _121
REMARK   51  A    between atoms: _121  and  _122
REMARK   52  A    between atoms: _122  and  _123
REMARK   53  A    between atoms: _123  and  _124
REMARK   54  A    between atoms: _128  and  _130
REMARK   55  A    between atoms: _130  and  _131
REMARK   56  A    between atoms: _130  and  _133
REMARK   57  A    between atoms: _133  and  _134
REMARK   58  A    between atoms: _139  and  _141
REMARK   59  A    between atoms: _141  and  _142
REMARK   60  A    between atoms: _141  and  _144
REMARK   61  A    between atoms: _144  and  _145
REMARK   62  A    between atoms: _150  and  _152
REMARK   63  A    between atoms: _152  and  _153
REMARK   64  A    between atoms: _152  and  _155
REMARK   65  A    between atoms: _155  and  _156
REMARK   66  A    between atoms: _158  and  _160
REMARK   67  A    between atoms: _160  and  _161
REMARK   68  A    between atoms: _160  and  _163
REMARK   69  A    between atoms: _163  and  _164
REMARK   70  A    between atoms: _164  and  _165
REMARK   71  A    between atoms: _170  and  _172
REMARK   72  A    between atoms: _172  and  _173
REMARK   73  A    between atoms: _172  and  _175
REMARK   74  A    between atoms: _175  and  _176
REMARK   75  A    between atoms: _179  and  _181
REMARK   76  A    between atoms: _181  and  _182
REMARK   77  A    between atoms: _181  and  _184
REMARK   78  A    between atoms: _184  and  _185
REMARK   79  A    between atoms: _188  and  _190
REMARK   80  A    between atoms: _190  and  _191
REMARK   81  A    between atoms: _190  and  _193
REMARK   82  A    between atoms: _193  and  _194
REMARK   83  A    between atoms: _200  and  _202
REMARK   84  A    between atoms: _202  and  _203
REMARK   85  A    between atoms: _202  and  _205
REMARK   86  A    between atoms: _205  and  _206
REMARK   87  A    between atoms: _209  and  _211
REMARK   88  A    between atoms: _211  and  _212
REMARK   89  A    between atoms: _211  and  _214
REMARK   90  A    between atoms: _214  and  _215
REMARK   91  A    between atoms: _215  and  _216
REMARK   92  A    between atoms: _221  and  _223
REMARK   93  A    between atoms: _223  and  _224
REMARK   94  A    between atoms: _223  and  _226
REMARK   95  A    between atoms: _226  and  _227
REMARK   96  A    between atoms: _233  and  _235
REMARK   97  A    between atoms: _235  and  _236
REMARK   98  A    between atoms: _235  and  _238
REMARK   99  A    between atoms: _241  and  _243
REMARK  100  A    between atoms: _243  and  _244
REMARK  101  A    between atoms: _243  and  _246
REMARK  102  A    between atoms: _246  and  _247
REMARK  103  A    between atoms: _252  and  _253
REMARK  104  A    between atoms: _255  and  _257
REMARK  105  A    between atoms: _257  and  _258
REMARK  106  A    between atoms: _257  and  _260
REMARK  107  A    between atoms: _260  and  _261
REMARK  108  A    between atoms: _261  and  _262
REMARK  109  A    between atoms: _262  and  _263
REMARK  110  A    between atoms: _263  and  _264
REMARK  111  A    between atoms: _268  and  _270
REMARK  112  A    between atoms: _270  and  _271
REMARK  113  A    between atoms: _270  and  _273
REMARK  114  A    between atoms: _273  and  _274
REMARK  115  A    between atoms: _279  and  _281
REMARK  116  A    between atoms: _281  and  _282
REMARK  117  A    between atoms: _285  and  _287
REMARK  118  A    between atoms: _287  and  _288
REMARK  119  A    between atoms: _287  and  _290
REMARK  120  A    between atoms: _290  and  _291
REMARK                            x       y       z     vdW  Elec       q    Type
REMARK                         _______ _______ _______ _____ _____    ______ ____
ROOT
ATOM      1  O   HOH     1       3.366 -13.219 -15.502  0.00  0.00    +0.000 OA
ENDROOT
TORSDOF 0
REMARK  Name = ../refined-set-2016/2ylc/2ylc_pocket.pdb
REMARK  120 active torsions:
REMARK  status: ('A' for Active; 'I' for Inactive)
REMARK    1  A    between atoms: _1  and  _3
REMARK    2  A    between atoms: _3  and  _4
REMARK    3  A    between atoms: _3  and  _6
REMARK    4  A    between atoms: _6  and  _7
REMARK    5  A    between atoms: _10  and  _12
REMARK    6  A    between atoms: _12  and  _13
REMARK    7  A    between atoms: _12  and  _15
REMARK    8  A    between atoms: _15  and  _16
REMARK    9  A    between atoms: _16  and  _17
REMARK   10  A    between atoms: _22  and  _24
REMARK   11  A    between atoms: _24  and  _25
REMARK   12  A    between atoms: _24  and  _27
REMARK   13  A    between atoms: _27  and  _28
REMARK   14  A    between atoms: _34  and  _36
REMARK   15  A    between atoms: _36  and  _37
REMARK   16  A    between atoms: _36  and  _39
REMARK   17  A    between atoms: _42  and  _44
REMARK   18  A    between atoms: _44  and  _45
REMARK   19  A    between atoms: _44  and  _47
REMARK   20  A    between atoms: _47  and  _48
REMARK   21  A    between atoms: _48  and  _49
REMARK   22  A    between atoms: _51  and  _53
REMARK   23  A    between atoms: _53  and  _54
REMARK   24  A    between atoms: _53  and  _56
REMARK   25  A    between atoms: _59  and  _61
REMARK   26  A    between atoms: _61  and  _62
REMARK   27  A    between atoms: _61  and  _64
REMARK   28  A    between atoms: _64  and  _65
REMARK   29  A    between atoms: _70  and  _71
REMARK   30  A    between atoms: _73  and  _75
REMARK   31  A    between atoms: _75  and  _76
REMARK   32  A    between atoms: _75  and  _78
REMARK   33  A    between atoms: _78  and  _79
REMARK   34  A    between atoms: _79  and  _80
REMARK   35  A    between atoms: _80  and  _81
REMARK   36  A    between atoms: _81  and  _82
REMARK   37  A    between atoms: _86  and  _88
REMARK   38  A    between atoms: _88  and  _89
REMARK   39  A    between atoms: _88  and  _91
REMARK   40  A    between atoms: _91  and  _92
REMARK   41  A    between atoms: _97  and  _99
REMARK   42  A    between atoms: _99  and  _100
REMARK   43  A    between atoms: _103  and  _105
REMARK   44  A    between atoms: _105  and  _106
REMARK   45  A    between atoms: _105  and  _108
REMARK   46  A    between atoms: _108  and  _109
REMARK   47  A    between atoms: _115  and  _117
REMARK   48  A    between atoms: _117  and  _118
REMARK   49  A    between atoms: _117  and  _120
REMARK   50  A    between atoms: _120  and  _121
REMARK   51  A    between atoms: _121  and  _122
REMARK   52  A    between atoms: _122  and  _123
REMARK   53  A    between atoms: _123  and  _124
REMARK   54  A    between atoms: _128  and  _130
REMARK   55  A    between atoms: _130  and  _131
REMARK   56  A    between atoms: _130  and  _133
REMARK   57  A    between atoms: _133  and  _134
REMARK   58  A    between atoms: _139  and  _141
REMARK   59  A    between atoms: _141  and  _142
REMARK   60  A    between atoms: _141  and  _144
REMARK   61  A    between atoms: _144  and  _145
REMARK   62  A    between atoms: _150  and  _152
REMARK   63  A    between atoms: _152  and  _153
REMARK   64  A    between atoms: _152  and  _155
REMARK   65  A    between atoms: _155  and  _156
REMARK   66  A    between atoms: _158  and  _160
REMARK   67  A    between atoms: _160  and  _161
REMARK   68  A    between atoms: _160  and  _163
REMARK   69  A    between atoms: _163  and  _164
REMARK   70  A    between atoms: _164  and  _165
REMARK   71  A    between atoms: _170  and  _172
REMARK   72  A    between atoms: _172  and  _173
REMARK   73  A    between atoms: _172  and  _175
REMARK   74  A    between atoms: _175  and  _176
REMARK   75  A    between atoms: _179  and  _181
REMARK   76  A    between atoms: _181  and  _182
REMARK   77  A    between atoms: _181  and  _184
REMARK   78  A    between atoms: _184  and  _185
REMARK   79  A    between atoms: _188  and  _190
REMARK   80  A    between atoms: _190  and  _191
REMARK   81  A    between atoms: _190  and  _193
REMARK   82  A    between atoms: _193  and  _194
REMARK   83  A    between atoms: _200  and  _202
REMARK   84  A    between atoms: _202  and  _203
REMARK   85  A    between atoms: _202  and  _205
REMARK   86  A    between atoms: _205  and  _206
REMARK   87  A    between atoms: _209  and  _211
REMARK   88  A    between atoms: _211  and  _212
REMARK   89  A    between atoms: _211  and  _214
REMARK   90  A    between atoms: _214  and  _215
REMARK   91  A    between atoms: _215  and  _216
REMARK   92  A    between atoms: _221  and  _223
REMARK   93  A    between atoms: _223  and  _224
REMARK   94  A    between atoms: _223  and  _226
REMARK   95  A    between atoms: _226  and  _227
REMARK   96  A    between atoms: _233  and  _235
REMARK   97  A    between atoms: _235  and  _236
REMARK   98  A    between atoms: _235  and  _238
REMARK   99  A    between atoms: _241  and  _243
REMARK  100  A    between atoms: _243  and  _244
REMARK  101  A    between atoms: _243  and  _246
REMARK  102  A    between atoms: _246  and  _247
REMARK  103  A    between atoms: _252  and  _253
REMARK  104  A    between atoms: _255  and  _257
REMARK  105  A    between atoms: _257  and  _258
REMARK  106  A    between atoms: _257  and  _260
REMARK  107  A    between atoms: _260  and  _261
REMARK  108  A    between atoms: _261  and  _262
REMARK  109  A    between atoms: _262  and  _263
REMARK  110  A    between atoms: _263  and  _264
REMARK  111  A    between atoms: _268  and  _270
REMARK  112  A    between atoms: _270  and  _271
REMARK  113  A    between atoms: _270  and  _273
REMARK  114  A    between atoms: _273  and  _274
REMARK  115  A    between atoms: _279  and  _281
REMARK  116  A    between atoms: _281  and  _282
REMARK  117  A    between atoms: _285  and  _287
REMARK  118  A    between atoms: _287  and  _288
REMARK  119  A    between atoms: _287  and  _290
REMARK  120  A    between atoms: _290  and  _291
REMARK                            x       y       z     vdW  Elec       q    Type
REMARK                         _______ _______ _______ _____ _____    ______ ____
ROOT
ATOM      1  O   HOH     1       2.037  -7.901 -21.126  0.00  0.00    +0.000 OA
ENDROOT
TORSDOF 0
REMARK  Name = ../refined-set-2016/2ylc/2ylc_pocket.pdb
REMARK  120 active torsions:
REMARK  status: ('A' for Active; 'I' for Inactive)
REMARK    1  A    between atoms: _1  and  _3
REMARK    2  A    between atoms: _3  and  _4
REMARK    3  A    between atoms: _3  and  _6
REMARK    4  A    between atoms: _6  and  _7
REMARK    5  A    between atoms: _10  and  _12
REMARK    6  A    between atoms: _12  and  _13
REMARK    7  A    between atoms: _12  and  _15
REMARK    8  A    between atoms: _15  and  _16
REMARK    9  A    between atoms: _16  and  _17
REMARK   10  A    between atoms: _22  and  _24
REMARK   11  A    between atoms: _24  and  _25
REMARK   12  A    between atoms: _24  and  _27
REMARK   13  A    between atoms: _27  and  _28
REMARK   14  A    between atoms: _34  and  _36
REMARK   15  A    between atoms: _36  and  _37
REMARK   16  A    between atoms: _36  and  _39
REMARK   17  A    between atoms: _42  and  _44
REMARK   18  A    between atoms: _44  and  _45
REMARK   19  A    between atoms: _44  and  _47
REMARK   20  A    between atoms: _47  and  _48
REMARK   21  A    between atoms: _48  and  _49
REMARK   22  A    between atoms: _51  and  _53
REMARK   23  A    between atoms: _53  and  _54
REMARK   24  A    between atoms: _53  and  _56
REMARK   25  A    between atoms: _59  and  _61
REMARK   26  A    between atoms: _61  and  _62
REMARK   27  A    between atoms: _61  and  _64
REMARK   28  A    between atoms: _64  and  _65
REMARK   29  A    between atoms: _70  and  _71
REMARK   30  A    between atoms: _73  and  _75
REMARK   31  A    between atoms: _75  and  _76
REMARK   32  A    between atoms: _75  and  _78
REMARK   33  A    between atoms: _78  and  _79
REMARK   34  A    between atoms: _79  and  _80
REMARK   35  A    between atoms: _80  and  _81
REMARK   36  A    between atoms: _81  and  _82
REMARK   37  A    between atoms: _86  and  _88
REMARK   38  A    between atoms: _88  and  _89
REMARK   39  A    between atoms: _88  and  _91
REMARK   40  A    between atoms: _91  and  _92
REMARK   41  A    between atoms: _97  and  _99
REMARK   42  A    between atoms: _99  and  _100
REMARK   43  A    between atoms: _103  and  _105
REMARK   44  A    between atoms: _105  and  _106
REMARK   45  A    between atoms: _105  and  _108
REMARK   46  A    between atoms: _108  and  _109
REMARK   47  A    between atoms: _115  and  _117
REMARK   48  A    between atoms: _117  and  _118
REMARK   49  A    between atoms: _117  and  _120
REMARK   50  A    between atoms: _120  and  _121
REMARK   51  A    between atoms: _121  and  _122
REMARK   52  A    between atoms: _122  and  _123
REMARK   53  A    between atoms: _123  and  _124
REMARK   54  A    between atoms: _128  and  _130
REMARK   55  A    between atoms: _130  and  _131
REMARK   56  A    between atoms: _130  and  _133
REMARK   57  A    between atoms: _133  and  _134
REMARK   58  A    between atoms: _139  and  _141
REMARK   59  A    between atoms: _141  and  _142
REMARK   60  A    between atoms: _141  and  _144
REMARK   61  A    between atoms: _144  and  _145
REMARK   62  A    between atoms: _150  and  _152
REMARK   63  A    between atoms: _152  and  _153
REMARK   64  A    between atoms: _152  and  _155
REMARK   65  A    between atoms: _155  and  _156
REMARK   66  A    between atoms: _158  and  _160
REMARK   67  A    between atoms: _160  and  _161
REMARK   68  A    between atoms: _160  and  _163
REMARK   69  A    between atoms: _163  and  _164
REMARK   70  A    between atoms: _164  and  _165
REMARK   71  A    between atoms: _170  and  _172
REMARK   72  A    between atoms: _172  and  _173
REMARK   73  A    between atoms: _172  and  _175
REMARK   74  A    between atoms: _175  and  _176
REMARK   75  A    between atoms: _179  and  _181
REMARK   76  A    between atoms: _181  and  _182
REMARK   77  A    between atoms: _181  and  _184
REMARK   78  A    between atoms: _184  and  _185
REMARK   79  A    between atoms: _188  and  _190
REMARK   80  A    between atoms: _190  and  _191
REMARK   81  A    between atoms: _190  and  _193
REMARK   82  A    between atoms: _193  and  _194
REMARK   83  A    between atoms: _200  and  _202
REMARK   84  A    between atoms: _202  and  _203
REMARK   85  A    between atoms: _202  and  _205
REMARK   86  A    between atoms: _205  and  _206
REMARK   87  A    between atoms: _209  and  _211
REMARK   88  A    between atoms: _211  and  _212
REMARK   89  A    between atoms: _211  and  _214
REMARK   90  A    between atoms: _214  and  _215
REMARK   91  A    between atoms: _215  and  _216
REMARK   92  A    between atoms: _221  and  _223
REMARK   93  A    between atoms: _223  and  _224
REMARK   94  A    between atoms: _223  and  _226
REMARK   95  A    between atoms: _226  and  _227
REMARK   96  A    between atoms: _233  and  _235
REMARK   97  A    between atoms: _235  and  _236
REMARK   98  A    between atoms: _235  and  _238
REMARK   99  A    between atoms: _241  and  _243
REMARK  100  A    between atoms: _243  and  _244
REMARK  101  A    between atoms: _243  and  _246
REMARK  102  A    between atoms: _246  and  _247
REMARK  103  A    between atoms: _252  and  _253
REMARK  104  A    between atoms: _255  and  _257
REMARK  105  A    between atoms: _257  and  _258
REMARK  106  A    between atoms: _257  and  _260
REMARK  107  A    between atoms: _260  and  _261
REMARK  108  A    between atoms: _261  and  _262
REMARK  109  A    between atoms: _262  and  _263
REMARK  110  A    between atoms: _263  and  _264
REMARK  111  A    between atoms: _268  and  _270
REMARK  112  A    between atoms: _270  and  _271
REMARK  113  A    between atoms: _270  and  _273
REMARK  114  A    between atoms: _273  and  _274
REMARK  115  A    between atoms: _279  and  _281
REMARK  116  A    between atoms: _281  and  _282
REMARK  117  A    between atoms: _285  and  _287
REMARK  118  A    between atoms: _287  and  _288
REMARK  119  A    between atoms: _287  and  _290
REMARK  120  A    between atoms: _290  and  _291
REMARK                            x       y       z     vdW  Elec       q    Type
REMARK                         _______ _______ _______ _____ _____    ______ ____
ROOT
ATOM      1  O   HOH     1       3.610 -11.761 -18.476  0.00  0.00    +0.000 OA
ENDROOT
TORSDOF 0
REMARK  Name = ../refined-set-2016/2ylc/2ylc_pocket.pdb
REMARK  120 active torsions:
REMARK  status: ('A' for Active; 'I' for Inactive)
REMARK    1  A    between atoms: _1  and  _3
REMARK    2  A    between atoms: _3  and  _4
REMARK    3  A    between atoms: _3  and  _6
REMARK    4  A    between atoms: _6  and  _7
REMARK    5  A    between atoms: _10  and  _12
REMARK    6  A    between atoms: _12  and  _13
REMARK    7  A    between atoms: _12  and  _15
REMARK    8  A    between atoms: _15  and  _16
REMARK    9  A    between atoms: _16  and  _17
REMARK   10  A    between atoms: _22  and  _24
REMARK   11  A    between atoms: _24  and  _25
REMARK   12  A    between atoms: _24  and  _27
REMARK   13  A    between atoms: _27  and  _28
REMARK   14  A    between atoms: _34  and  _36
REMARK   15  A    between atoms: _36  and  _37
REMARK   16  A    between atoms: _36  and  _39
REMARK   17  A    between atoms: _42  and  _44
REMARK   18  A    between atoms: _44  and  _45
REMARK   19  A    between atoms: _44  and  _47
REMARK   20  A    between atoms: _47  and  _48
REMARK   21  A    between atoms: _48  and  _49
REMARK   22  A    between atoms: _51  and  _53
REMARK   23  A    between atoms: _53  and  _54
REMARK   24  A    between atoms: _53  and  _56
REMARK   25  A    between atoms: _59  and  _61
REMARK   26  A    between atoms: _61  and  _62
REMARK   27  A    between atoms: _61  and  _64
REMARK   28  A    between atoms: _64  and  _65
REMARK   29  A    between atoms: _70  and  _71
REMARK   30  A    between atoms: _73  and  _75
REMARK   31  A    between atoms: _75  and  _76
REMARK   32  A    between atoms: _75  and  _78
REMARK   33  A    between atoms: _78  and  _79
REMARK   34  A    between atoms: _79  and  _80
REMARK   35  A    between atoms: _80  and  _81
REMARK   36  A    between atoms: _81  and  _82
REMARK   37  A    between atoms: _86  and  _88
REMARK   38  A    between atoms: _88  and  _89
REMARK   39  A    between atoms: _88  and  _91
REMARK   40  A    between atoms: _91  and  _92
REMARK   41  A    between atoms: _97  and  _99
REMARK   42  A    between atoms: _99  and  _100
REMARK   43  A    between atoms: _103  and  _105
REMARK   44  A    between atoms: _105  and  _106
REMARK   45  A    between atoms: _105  and  _108
REMARK   46  A    between atoms: _108  and  _109
REMARK   47  A    between atoms: _115  and  _117
REMARK   48  A    between atoms: _117  and  _118
REMARK   49  A    between atoms: _117  and  _120
REMARK   50  A    between atoms: _120  and  _121
REMARK   51  A    between atoms: _121  and  _122
REMARK   52  A    between atoms: _122  and  _123
REMARK   53  A    between atoms: _123  and  _124
REMARK   54  A    between atoms: _128  and  _130
REMARK   55  A    between atoms: _130  and  _131
REMARK   56  A    between atoms: _130  and  _133
REMARK   57  A    between atoms: _133  and  _134
REMARK   58  A    between atoms: _139  and  _141
REMARK   59  A    between atoms: _141  and  _142
REMARK   60  A    between atoms: _141  and  _144
REMARK   61  A    between atoms: _144  and  _145
REMARK   62  A    between atoms: _150  and  _152
REMARK   63  A    between atoms: _152  and  _153
REMARK   64  A    between atoms: _152  and  _155
REMARK   65  A    between atoms: _155  and  _156
REMARK   66  A    between atoms: _158  and  _160
REMARK   67  A    between atoms: _160  and  _161
REMARK   68  A    between atoms: _160  and  _163
REMARK   69  A    between atoms: _163  and  _164
REMARK   70  A    between atoms: _164  and  _165
REMARK   71  A    between atoms: _170  and  _172
REMARK   72  A    between atoms: _172  and  _173
REMARK   73  A    between atoms: _172  and  _175
REMARK   74  A    between atoms: _175  and  _176
REMARK   75  A    between atoms: _179  and  _181
REMARK   76  A    between atoms: _181  and  _182
REMARK   77  A    between atoms: _181  and  _184
REMARK   78  A    between atoms: _184  and  _185
REMARK   79  A    between atoms: _188  and  _190
REMARK   80  A    between atoms: _190  and  _191
REMARK   81  A    between atoms: _190  and  _193
REMARK   82  A    between atoms: _193  and  _194
REMARK   83  A    between atoms: _200  and  _202
REMARK   84  A    between atoms: _202  and  _203
REMARK   85  A    between atoms: _202  and  _205
REMARK   86  A    between atoms: _205  and  _206
REMARK   87  A    between atoms: _209  and  _211
REMARK   88  A    between atoms: _211  and  _212
REMARK   89  A    between atoms: _211  and  _214
REMARK   90  A    between atoms: _214  and  _215
REMARK   91  A    between atoms: _215  and  _216
REMARK   92  A    between atoms: _221  and  _223
REMARK   93  A    between atoms: _223  and  _224
REMARK   94  A    between atoms: _223  and  _226
REMARK   95  A    between atoms: _226  and  _227
REMARK   96  A    between atoms: _233  and  _235
REMARK   97  A    between atoms: _235  and  _236
REMARK   98  A    between atoms: _235  and  _238
REMARK   99  A    between atoms: _241  and  _243
REMARK  100  A    between atoms: _243  and  _244
REMARK  101  A    between atoms: _243  and  _246
REMARK  102  A    between atoms: _246  and  _247
REMARK  103  A    between atoms: _252  and  _253
REMARK  104  A    between atoms: _255  and  _257
REMARK  105  A    between atoms: _257  and  _258
REMARK  106  A    between atoms: _257  and  _260
REMARK  107  A    between atoms: _260  and  _261
REMARK  108  A    between atoms: _261  and  _262
REMARK  109  A    between atoms: _262  and  _263
REMARK  110  A    between atoms: _263  and  _264
REMARK  111  A    between atoms: _268  and  _270
REMARK  112  A    between atoms: _270  and  _271
REMARK  113  A    between atoms: _270  and  _273
REMARK  114  A    between atoms: _273  and  _274
REMARK  115  A    between atoms: _279  and  _281
REMARK  116  A    between atoms: _281  and  _282
REMARK  117  A    between atoms: _285  and  _287
REMARK  118  A    between atoms: _287  and  _288
REMARK  119  A    between atoms: _287  and  _290
REMARK  120  A    between atoms: _290  and  _291
REMARK                            x       y       z     vdW  Elec       q    Type
REMARK                         _______ _______ _______ _____ _____    ______ ____
ROOT
ATOM      1  O   HOH     1       3.746  -8.062 -10.151  0.00  0.00    +0.000 OA
ENDROOT
TORSDOF 0
REMARK  Name = ../refined-set-2016/2ylc/2ylc_pocket.pdb
REMARK  120 active torsions:
REMARK  status: ('A' for Active; 'I' for Inactive)
REMARK    1  A    between atoms: _1  and  _3
REMARK    2  A    between atoms: _3  and  _4
REMARK    3  A    between atoms: _3  and  _6
REMARK    4  A    between atoms: _6  and  _7
REMARK    5  A    between atoms: _10  and  _12
REMARK    6  A    between atoms: _12  and  _13
REMARK    7  A    between atoms: _12  and  _15
REMARK    8  A    between atoms: _15  and  _16
REMARK    9  A    between atoms: _16  and  _17
REMARK   10  A    between atoms: _22  and  _24
REMARK   11  A    between atoms: _24  and  _25
REMARK   12  A    between atoms: _24  and  _27
REMARK   13  A    between atoms: _27  and  _28
REMARK   14  A    between atoms: _34  and  _36
REMARK   15  A    between atoms: _36  and  _37
REMARK   16  A    between atoms: _36  and  _39
REMARK   17  A    between atoms: _42  and  _44
REMARK   18  A    between atoms: _44  and  _45
REMARK   19  A    between atoms: _44  and  _47
REMARK   20  A    between atoms: _47  and  _48
REMARK   21  A    between atoms: _48  and  _49
REMARK   22  A    between atoms: _51  and  _53
REMARK   23  A    between atoms: _53  and  _54
REMARK   24  A    between atoms: _53  and  _56
REMARK   25  A    between atoms: _59  and  _61
REMARK   26  A    between atoms: _61  and  _62
REMARK   27  A    between atoms: _61  and  _64
REMARK   28  A    between atoms: _64  and  _65
REMARK   29  A    between atoms: _70  and  _71
REMARK   30  A    between atoms: _73  and  _75
REMARK   31  A    between atoms: _75  and  _76
REMARK   32  A    between atoms: _75  and  _78
REMARK   33  A    between atoms: _78  and  _79
REMARK   34  A    between atoms: _79  and  _80
REMARK   35  A    between atoms: _80  and  _81
REMARK   36  A    between atoms: _81  and  _82
REMARK   37  A    between atoms: _86  and  _88
REMARK   38  A    between atoms: _88  and  _89
REMARK   39  A    between atoms: _88  and  _91
REMARK   40  A    between atoms: _91  and  _92
REMARK   41  A    between atoms: _97  and  _99
REMARK   42  A    between atoms: _99  and  _100
REMARK   43  A    between atoms: _103  and  _105
REMARK   44  A    between atoms: _105  and  _106
REMARK   45  A    between atoms: _105  and  _108
REMARK   46  A    between atoms: _108  and  _109
REMARK   47  A    between atoms: _115  and  _117
REMARK   48  A    between atoms: _117  and  _118
REMARK   49  A    between atoms: _117  and  _120
REMARK   50  A    between atoms: _120  and  _121
REMARK   51  A    between atoms: _121  and  _122
REMARK   52  A    between atoms: _122  and  _123
REMARK   53  A    between atoms: _123  and  _124
REMARK   54  A    between atoms: _128  and  _130
REMARK   55  A    between atoms: _130  and  _131
REMARK   56  A    between atoms: _130  and  _133
REMARK   57  A    between atoms: _133  and  _134
REMARK   58  A    between atoms: _139  and  _141
REMARK   59  A    between atoms: _141  and  _142
REMARK   60  A    between atoms: _141  and  _144
REMARK   61  A    between atoms: _144  and  _145
REMARK   62  A    between atoms: _150  and  _152
REMARK   63  A    between atoms: _152  and  _153
REMARK   64  A    between atoms: _152  and  _155
REMARK   65  A    between atoms: _155  and  _156
REMARK   66  A    between atoms: _158  and  _160
REMARK   67  A    between atoms: _160  and  _161
REMARK   68  A    between atoms: _160  and  _163
REMARK   69  A    between atoms: _163  and  _164
REMARK   70  A    between atoms: _164  and  _165
REMARK   71  A    between atoms: _170  and  _172
REMARK   72  A    between atoms: _172  and  _173
REMARK   73  A    between atoms: _172  and  _175
REMARK   74  A    between atoms: _175  and  _176
REMARK   75  A    between atoms: _179  and  _181
REMARK   76  A    between atoms: _181  and  _182
REMARK   77  A    between atoms: _181  and  _184
REMARK   78  A    between atoms: _184  and  _185
REMARK   79  A    between atoms: _188  and  _190
REMARK   80  A    between atoms: _190  and  _191
REMARK   81  A    between atoms: _190  and  _193
REMARK   82  A    between atoms: _193  and  _194
REMARK   83  A    between atoms: _200  and  _202
REMARK   84  A    between atoms: _202  and  _203
REMARK   85  A    between atoms: _202  and  _205
REMARK   86  A    between atoms: _205  and  _206
REMARK   87  A    between atoms: _209  and  _211
REMARK   88  A    between atoms: _211  and  _212
REMARK   89  A    between atoms: _211  and  _214
REMARK   90  A    between atoms: _214  and  _215
REMARK   91  A    between atoms: _215  and  _216
REMARK   92  A    between atoms: _221  and  _223
REMARK   93  A    between atoms: _223  and  _224
REMARK   94  A    between atoms: _223  and  _226
REMARK   95  A    between atoms: _226  and  _227
REMARK   96  A    between atoms: _233  and  _235
REMARK   97  A    between atoms: _235  and  _236
REMARK   98  A    between atoms: _235  and  _238
REMARK   99  A    between atoms: _241  and  _243
REMARK  100  A    between atoms: _243  and  _244
REMARK  101  A    between atoms: _243  and  _246
REMARK  102  A    between atoms: _246  and  _247
REMARK  103  A    between atoms: _252  and  _253
REMARK  104  A    between atoms: _255  and  _257
REMARK  105  A    between atoms: _257  and  _258
REMARK  106  A    between atoms: _257  and  _260
REMARK  107  A    between atoms: _260  and  _261
REMARK  108  A    between atoms: _261  and  _262
REMARK  109  A    between atoms: _262  and  _263
REMARK  110  A    between atoms: _263  and  _264
REMARK  111  A    between atoms: _268  and  _270
REMARK  112  A    between atoms: _270  and  _271
REMARK  113  A    between atoms: _270  and  _273
REMARK  114  A    between atoms: _273  and  _274
REMARK  115  A    between atoms: _279  and  _281
REMARK  116  A    between atoms: _281  and  _282
REMARK  117  A    between atoms: _285  and  _287
REMARK  118  A    between atoms: _287  and  _288
REMARK  119  A    between atoms: _287  and  _290
REMARK  120  A    between atoms: _290  and  _291
REMARK                            x       y       z     vdW  Elec       q    Type
REMARK                         _______ _______ _______ _____ _____    ______ ____
ROOT
ATOM      1  O   HOH     1       3.352  -1.941  -5.678  0.00  0.00    +0.000 OA
ENDROOT
TORSDOF 0
REMARK  Name = ../refined-set-2016/2ylc/2ylc_pocket.pdb
REMARK  120 active torsions:
REMARK  status: ('A' for Active; 'I' for Inactive)
REMARK    1  A    between atoms: _1  and  _3
REMARK    2  A    between atoms: _3  and  _4
REMARK    3  A    between atoms: _3  and  _6
REMARK    4  A    between atoms: _6  and  _7
REMARK    5  A    between atoms: _10  and  _12
REMARK    6  A    between atoms: _12  and  _13
REMARK    7  A    between atoms: _12  and  _15
REMARK    8  A    between atoms: _15  and  _16
REMARK    9  A    between atoms: _16  and  _17
REMARK   10  A    between atoms: _22  and  _24
REMARK   11  A    between atoms: _24  and  _25
REMARK   12  A    between atoms: _24  and  _27
REMARK   13  A    between atoms: _27  and  _28
REMARK   14  A    between atoms: _34  and  _36
REMARK   15  A    between atoms: _36  and  _37
REMARK   16  A    between atoms: _36  and  _39
REMARK   17  A    between atoms: _42  and  _44
REMARK   18  A    between atoms: _44  and  _45
REMARK   19  A    between atoms: _44  and  _47
REMARK   20  A    between atoms: _47  and  _48
REMARK   21  A    between atoms: _48  and  _49
REMARK   22  A    between atoms: _51  and  _53
REMARK   23  A    between atoms: _53  and  _54
REMARK   24  A    between atoms: _53  and  _56
REMARK   25  A    between atoms: _59  and  _61
REMARK   26  A    between atoms: _61  and  _62
REMARK   27  A    between atoms: _61  and  _64
REMARK   28  A    between atoms: _64  and  _65
REMARK   29  A    between atoms: _70  and  _71
REMARK   30  A    between atoms: _73  and  _75
REMARK   31  A    between atoms: _75  and  _76
REMARK   32  A    between atoms: _75  and  _78
REMARK   33  A    between atoms: _78  and  _79
REMARK   34  A    between atoms: _79  and  _80
REMARK   35  A    between atoms: _80  and  _81
REMARK   36  A    between atoms: _81  and  _82
REMARK   37  A    between atoms: _86  and  _88
REMARK   38  A    between atoms: _88  and  _89
REMARK   39  A    between atoms: _88  and  _91
REMARK   40  A    between atoms: _91  and  _92
REMARK   41  A    between atoms: _97  and  _99
REMARK   42  A    between atoms: _99  and  _100
REMARK   43  A    between atoms: _103  and  _105
REMARK   44  A    between atoms: _105  and  _106
REMARK   45  A    between atoms: _105  and  _108
REMARK   46  A    between atoms: _108  and  _109
REMARK   47  A    between atoms: _115  and  _117
REMARK   48  A    between atoms: _117  and  _118
REMARK   49  A    between atoms: _117  and  _120
REMARK   50  A    between atoms: _120  and  _121
REMARK   51  A    between atoms: _121  and  _122
REMARK   52  A    between atoms: _122  and  _123
REMARK   53  A    between atoms: _123  and  _124
REMARK   54  A    between atoms: _128  and  _130
REMARK   55  A    between atoms: _130  and  _131
REMARK   56  A    between atoms: _130  and  _133
REMARK   57  A    between atoms: _133  and  _134
REMARK   58  A    between atoms: _139  and  _141
REMARK   59  A    between atoms: _141  and  _142
REMARK   60  A    between atoms: _141  and  _144
REMARK   61  A    between atoms: _144  and  _145
REMARK   62  A    between atoms: _150  and  _152
REMARK   63  A    between atoms: _152  and  _153
REMARK   64  A    between atoms: _152  and  _155
REMARK   65  A    between atoms: _155  and  _156
REMARK   66  A    between atoms: _158  and  _160
REMARK   67  A    between atoms: _160  and  _161
REMARK   68  A    between atoms: _160  and  _163
REMARK   69  A    between atoms: _163  and  _164
REMARK   70  A    between atoms: _164  and  _165
REMARK   71  A    between atoms: _170  and  _172
REMARK   72  A    between atoms: _172  and  _173
REMARK   73  A    between atoms: _172  and  _175
REMARK   74  A    between atoms: _175  and  _176
REMARK   75  A    between atoms: _179  and  _181
REMARK   76  A    between atoms: _181  and  _182
REMARK   77  A    between atoms: _181  and  _184
REMARK   78  A    between atoms: _184  and  _185
REMARK   79  A    between atoms: _188  and  _190
REMARK   80  A    between atoms: _190  and  _191
REMARK   81  A    between atoms: _190  and  _193
REMARK   82  A    between atoms: _193  and  _194
REMARK   83  A    between atoms: _200  and  _202
REMARK   84  A    between atoms: _202  and  _203
REMARK   85  A    between atoms: _202  and  _205
REMARK   86  A    between atoms: _205  and  _206
REMARK   87  A    between atoms: _209  and  _211
REMARK   88  A    between atoms: _211  and  _212
REMARK   89  A    between atoms: _211  and  _214
REMARK   90  A    between atoms: _214  and  _215
REMARK   91  A    between atoms: _215  and  _216
REMARK   92  A    between atoms: _221  and  _223
REMARK   93  A    between atoms: _223  and  _224
REMARK   94  A    between atoms: _223  and  _226
REMARK   95  A    between atoms: _226  and  _227
REMARK   96  A    between atoms: _233  and  _235
REMARK   97  A    between atoms: _235  and  _236
REMARK   98  A    between atoms: _235  and  _238
REMARK   99  A    between atoms: _241  and  _243
REMARK  100  A    between atoms: _243  and  _244
REMARK  101  A    between atoms: _243  and  _246
REMARK  102  A    between atoms: _246  and  _247
REMARK  103  A    between atoms: _252  and  _253
REMARK  104  A    between atoms: _255  and  _257
REMARK  105  A    between atoms: _257  and  _258
REMARK  106  A    between atoms: _257  and  _260
REMARK  107  A    between atoms: _260  and  _261
REMARK  108  A    between atoms: _261  and  _262
REMARK  109  A    between atoms: _262  and  _263
REMARK  110  A    between atoms: _263  and  _264
REMARK  111  A    between atoms: _268  and  _270
REMARK  112  A    between atoms: _270  and  _271
REMARK  113  A    between atoms: _270  and  _273
REMARK  114  A    between atoms: _273  and  _274
REMARK  115  A    between atoms: _279  and  _281
REMARK  116  A    between atoms: _281  and  _282
REMARK  117  A    between atoms: _285  and  _287
REMARK  118  A    between atoms: _287  and  _288
REMARK  119  A    between atoms: _287  and  _290
REMARK  120  A    between atoms: _290  and  _291
REMARK                            x       y       z     vdW  Elec       q    Type
REMARK                         _______ _______ _______ _____ _____    ______ ____
ROOT
ATOM      1  O   HOH     1      -4.416  -1.262 -15.073  0.00  0.00    +0.000 OA
ENDROOT
TORSDOF 0
REMARK  Name = ../refined-set-2016/2ylc/2ylc_pocket.pdb
REMARK  120 active torsions:
REMARK  status: ('A' for Active; 'I' for Inactive)
REMARK    1  A    between atoms: _1  and  _3
REMARK    2  A    between atoms: _3  and  _4
REMARK    3  A    between atoms: _3  and  _6
REMARK    4  A    between atoms: _6  and  _7
REMARK    5  A    between atoms: _10  and  _12
REMARK    6  A    between atoms: _12  and  _13
REMARK    7  A    between atoms: _12  and  _15
REMARK    8  A    between atoms: _15  and  _16
REMARK    9  A    between atoms: _16  and  _17
REMARK   10  A    between atoms: _22  and  _24
REMARK   11  A    between atoms: _24  and  _25
REMARK   12  A    between atoms: _24  and  _27
REMARK   13  A    between atoms: _27  and  _28
REMARK   14  A    between atoms: _34  and  _36
REMARK   15  A    between atoms: _36  and  _37
REMARK   16  A    between atoms: _36  and  _39
REMARK   17  A    between atoms: _42  and  _44
REMARK   18  A    between atoms: _44  and  _45
REMARK   19  A    between atoms: _44  and  _47
REMARK   20  A    between atoms: _47  and  _48
REMARK   21  A    between atoms: _48  and  _49
REMARK   22  A    between atoms: _51  and  _53
REMARK   23  A    between atoms: _53  and  _54
REMARK   24  A    between atoms: _53  and  _56
REMARK   25  A    between atoms: _59  and  _61
REMARK   26  A    between atoms: _61  and  _62
REMARK   27  A    between atoms: _61  and  _64
REMARK   28  A    between atoms: _64  and  _65
REMARK   29  A    between atoms: _70  and  _71
REMARK   30  A    between atoms: _73  and  _75
REMARK   31  A    between atoms: _75  and  _76
REMARK   32  A    between atoms: _75  and  _78
REMARK   33  A    between atoms: _78  and  _79
REMARK   34  A    between atoms: _79  and  _80
REMARK   35  A    between atoms: _80  and  _81
REMARK   36  A    between atoms: _81  and  _82
REMARK   37  A    between atoms: _86  and  _88
REMARK   38  A    between atoms: _88  and  _89
REMARK   39  A    between atoms: _88  and  _91
REMARK   40  A    between atoms: _91  and  _92
REMARK   41  A    between atoms: _97  and  _99
REMARK   42  A    between atoms: _99  and  _100
REMARK   43  A    between atoms: _103  and  _105
REMARK   44  A    between atoms: _105  and  _106
REMARK   45  A    between atoms: _105  and  _108
REMARK   46  A    between atoms: _108  and  _109
REMARK   47  A    between atoms: _115  and  _117
REMARK   48  A    between atoms: _117  and  _118
REMARK   49  A    between atoms: _117  and  _120
REMARK   50  A    between atoms: _120  and  _121
REMARK   51  A    between atoms: _121  and  _122
REMARK   52  A    between atoms: _122  and  _123
REMARK   53  A    between atoms: _123  and  _124
REMARK   54  A    between atoms: _128  and  _130
REMARK   55  A    between atoms: _130  and  _131
REMARK   56  A    between atoms: _130  and  _133
REMARK   57  A    between atoms: _133  and  _134
REMARK   58  A    between atoms: _139  and  _141
REMARK   59  A    between atoms: _141  and  _142
REMARK   60  A    between atoms: _141  and  _144
REMARK   61  A    between atoms: _144  and  _145
REMARK   62  A    between atoms: _150  and  _152
REMARK   63  A    between atoms: _152  and  _153
REMARK   64  A    between atoms: _152  and  _155
REMARK   65  A    between atoms: _155  and  _156
REMARK   66  A    between atoms: _158  and  _160
REMARK   67  A    between atoms: _160  and  _161
REMARK   68  A    between atoms: _160  and  _163
REMARK   69  A    between atoms: _163  and  _164
REMARK   70  A    between atoms: _164  and  _165
REMARK   71  A    between atoms: _170  and  _172
REMARK   72  A    between atoms: _172  and  _173
REMARK   73  A    between atoms: _172  and  _175
REMARK   74  A    between atoms: _175  and  _176
REMARK   75  A    between atoms: _179  and  _181
REMARK   76  A    between atoms: _181  and  _182
REMARK   77  A    between atoms: _181  and  _184
REMARK   78  A    between atoms: _184  and  _185
REMARK   79  A    between atoms: _188  and  _190
REMARK   80  A    between atoms: _190  and  _191
REMARK   81  A    between atoms: _190  and  _193
REMARK   82  A    between atoms: _193  and  _194
REMARK   83  A    between atoms: _200  and  _202
REMARK   84  A    between atoms: _202  and  _203
REMARK   85  A    between atoms: _202  and  _205
REMARK   86  A    between atoms: _205  and  _206
REMARK   87  A    between atoms: _209  and  _211
REMARK   88  A    between atoms: _211  and  _212
REMARK   89  A    between atoms: _211  and  _214
REMARK   90  A    between atoms: _214  and  _215
REMARK   91  A    between atoms: _215  and  _216
REMARK   92  A    between atoms: _221  and  _223
REMARK   93  A    between atoms: _223  and  _224
REMARK   94  A    between atoms: _223  and  _226
REMARK   95  A    between atoms: _226  and  _227
REMARK   96  A    between atoms: _233  and  _235
REMARK   97  A    between atoms: _235  and  _236
REMARK   98  A    between atoms: _235  and  _238
REMARK   99  A    between atoms: _241  and  _243
REMARK  100  A    between atoms: _243  and  _244
REMARK  101  A    between atoms: _243  and  _246
REMARK  102  A    between atoms: _246  and  _247
REMARK  103  A    between atoms: _252  and  _253
REMARK  104  A    between atoms: _255  and  _257
REMARK  105  A    between atoms: _257  and  _258
REMARK  106  A    between atoms: _257  and  _260
REMARK  107  A    between atoms: _260  and  _261
REMARK  108  A    between atoms: _261  and  _262
REMARK  109  A    between atoms: _262  and  _263
REMARK  110  A    between atoms: _263  and  _264
REMARK  111  A    between atoms: _268  and  _270
REMARK  112  A    between atoms: _270  and  _271
REMARK  113  A    between atoms: _270  and  _273
REMARK  114  A    between atoms: _273  and  _274
REMARK  115  A    between atoms: _279  and  _281
REMARK  116  A    between atoms: _281  and  _282
REMARK  117  A    between atoms: _285  and  _287
REMARK  118  A    between atoms: _287  and  _288
REMARK  119  A    between atoms: _287  and  _290
REMARK  120  A    between atoms: _290  and  _291
REMARK                            x       y       z     vdW  Elec       q    Type
REMARK                         _______ _______ _______ _____ _____    ______ ____
ROOT
ATOM      1  O   HOH     1      -3.419  -1.623  -8.619  0.00  0.00    +0.000 OA
ENDROOT
TORSDOF 0
REMARK  Name = ../refined-set-2016/2ylc/2ylc_pocket.pdb
REMARK  120 active torsions:
REMARK  status: ('A' for Active; 'I' for Inactive)
REMARK    1  A    between atoms: _1  and  _3
REMARK    2  A    between atoms: _3  and  _4
REMARK    3  A    between atoms: _3  and  _6
REMARK    4  A    between atoms: _6  and  _7
REMARK    5  A    between atoms: _10  and  _12
REMARK    6  A    between atoms: _12  and  _13
REMARK    7  A    between atoms: _12  and  _15
REMARK    8  A    between atoms: _15  and  _16
REMARK    9  A    between atoms: _16  and  _17
REMARK   10  A    between atoms: _22  and  _24
REMARK   11  A    between atoms: _24  and  _25
REMARK   12  A    between atoms: _24  and  _27
REMARK   13  A    between atoms: _27  and  _28
REMARK   14  A    between atoms: _34  and  _36
REMARK   15  A    between atoms: _36  and  _37
REMARK   16  A    between atoms: _36  and  _39
REMARK   17  A    between atoms: _42  and  _44
REMARK   18  A    between atoms: _44  and  _45
REMARK   19  A    between atoms: _44  and  _47
REMARK   20  A    between atoms: _47  and  _48
REMARK   21  A    between atoms: _48  and  _49
REMARK   22  A    between atoms: _51  and  _53
REMARK   23  A    between atoms: _53  and  _54
REMARK   24  A    between atoms: _53  and  _56
REMARK   25  A    between atoms: _59  and  _61
REMARK   26  A    between atoms: _61  and  _62
REMARK   27  A    between atoms: _61  and  _64
REMARK   28  A    between atoms: _64  and  _65
REMARK   29  A    between atoms: _70  and  _71
REMARK   30  A    between atoms: _73  and  _75
REMARK   31  A    between atoms: _75  and  _76
REMARK   32  A    between atoms: _75  and  _78
REMARK   33  A    between atoms: _78  and  _79
REMARK   34  A    between atoms: _79  and  _80
REMARK   35  A    between atoms: _80  and  _81
REMARK   36  A    between atoms: _81  and  _82
REMARK   37  A    between atoms: _86  and  _88
REMARK   38  A    between atoms: _88  and  _89
REMARK   39  A    between atoms: _88  and  _91
REMARK   40  A    between atoms: _91  and  _92
REMARK   41  A    between atoms: _97  and  _99
REMARK   42  A    between atoms: _99  and  _100
REMARK   43  A    between atoms: _103  and  _105
REMARK   44  A    between atoms: _105  and  _106
REMARK   45  A    between atoms: _105  and  _108
REMARK   46  A    between atoms: _108  and  _109
REMARK   47  A    between atoms: _115  and  _117
REMARK   48  A    between atoms: _117  and  _118
REMARK   49  A    between atoms: _117  and  _120
REMARK   50  A    between atoms: _120  and  _121
REMARK   51  A    between atoms: _121  and  _122
REMARK   52  A    between atoms: _122  and  _123
REMARK   53  A    between atoms: _123  and  _124
REMARK   54  A    between atoms: _128  and  _130
REMARK   55  A    between atoms: _130  and  _131
REMARK   56  A    between atoms: _130  and  _133
REMARK   57  A    between atoms: _133  and  _134
REMARK   58  A    between atoms: _139  and  _141
REMARK   59  A    between atoms: _141  and  _142
REMARK   60  A    between atoms: _141  and  _144
REMARK   61  A    between atoms: _144  and  _145
REMARK   62  A    between atoms: _150  and  _152
REMARK   63  A    between atoms: _152  and  _153
REMARK   64  A    between atoms: _152  and  _155
REMARK   65  A    between atoms: _155  and  _156
REMARK   66  A    between atoms: _158  and  _160
REMARK   67  A    between atoms: _160  and  _161
REMARK   68  A    between atoms: _160  and  _163
REMARK   69  A    between atoms: _163  and  _164
REMARK   70  A    between atoms: _164  and  _165
REMARK   71  A    between atoms: _170  and  _172
REMARK   72  A    between atoms: _172  and  _173
REMARK   73  A    between atoms: _172  and  _175
REMARK   74  A    between atoms: _175  and  _176
REMARK   75  A    between atoms: _179  and  _181
REMARK   76  A    between atoms: _181  and  _182
REMARK   77  A    between atoms: _181  and  _184
REMARK   78  A    between atoms: _184  and  _185
REMARK   79  A    between atoms: _188  and  _190
REMARK   80  A    between atoms: _190  and  _191
REMARK   81  A    between atoms: _190  and  _193
REMARK   82  A    between atoms: _193  and  _194
REMARK   83  A    between atoms: _200  and  _202
REMARK   84  A    between atoms: _202  and  _203
REMARK   85  A    between atoms: _202  and  _205
REMARK   86  A    between atoms: _205  and  _206
REMARK   87  A    between atoms: _209  and  _211
REMARK   88  A    between atoms: _211  and  _212
REMARK   89  A    between atoms: _211  and  _214
REMARK   90  A    between atoms: _214  and  _215
REMARK   91  A    between atoms: _215  and  _216
REMARK   92  A    between atoms: _221  and  _223
REMARK   93  A    between atoms: _223  and  _224
REMARK   94  A    between atoms: _223  and  _226
REMARK   95  A    between atoms: _226  and  _227
REMARK   96  A    between atoms: _233  and  _235
REMARK   97  A    between atoms: _235  and  _236
REMARK   98  A    between atoms: _235  and  _238
REMARK   99  A    between atoms: _241  and  _243
REMARK  100  A    between atoms: _243  and  _244
REMARK  101  A    between atoms: _243  and  _246
REMARK  102  A    between atoms: _246  and  _247
REMARK  103  A    between atoms: _252  and  _253
REMARK  104  A    between atoms: _255  and  _257
REMARK  105  A    between atoms: _257  and  _258
REMARK  106  A    between atoms: _257  and  _260
REMARK  107  A    between atoms: _260  and  _261
REMARK  108  A    between atoms: _261  and  _262
REMARK  109  A    between atoms: _262  and  _263
REMARK  110  A    between atoms: _263  and  _264
REMARK  111  A    between atoms: _268  and  _270
REMARK  112  A    between atoms: _270  and  _271
REMARK  113  A    between atoms: _270  and  _273
REMARK  114  A    between atoms: _273  and  _274
REMARK  115  A    between atoms: _279  and  _281
REMARK  116  A    between atoms: _281  and  _282
REMARK  117  A    between atoms: _285  and  _287
REMARK  118  A    between atoms: _287  and  _288
REMARK  119  A    between atoms: _287  and  _290
REMARK  120  A    between atoms: _290  and  _291
REMARK                            x       y       z     vdW  Elec       q    Type
REMARK                         _______ _______ _______ _____ _____    ______ ____
ROOT
ATOM      1  O   HOH     1       0.973 -11.304 -19.670  0.00  0.00    +0.000 OA
ENDROOT
TORSDOF 0
REMARK  Name = ../refined-set-2016/2ylc/2ylc_pocket.pdb
REMARK  120 active torsions:
REMARK  status: ('A' for Active; 'I' for Inactive)
REMARK    1  A    between atoms: _1  and  _3
REMARK    2  A    between atoms: _3  and  _4
REMARK    3  A    between atoms: _3  and  _6
REMARK    4  A    between atoms: _6  and  _7
REMARK    5  A    between atoms: _10  and  _12
REMARK    6  A    between atoms: _12  and  _13
REMARK    7  A    between atoms: _12  and  _15
REMARK    8  A    between atoms: _15  and  _16
REMARK    9  A    between atoms: _16  and  _17
REMARK   10  A    between atoms: _22  and  _24
REMARK   11  A    between atoms: _24  and  _25
REMARK   12  A    between atoms: _24  and  _27
REMARK   13  A    between atoms: _27  and  _28
REMARK   14  A    between atoms: _34  and  _36
REMARK   15  A    between atoms: _36  and  _37
REMARK   16  A    between atoms: _36  and  _39
REMARK   17  A    between atoms: _42  and  _44
REMARK   18  A    between atoms: _44  and  _45
REMARK   19  A    between atoms: _44  and  _47
REMARK   20  A    between atoms: _47  and  _48
REMARK   21  A    between atoms: _48  and  _49
REMARK   22  A    between atoms: _51  and  _53
REMARK   23  A    between atoms: _53  and  _54
REMARK   24  A    between atoms: _53  and  _56
REMARK   25  A    between atoms: _59  and  _61
REMARK   26  A    between atoms: _61  and  _62
REMARK   27  A    between atoms: _61  and  _64
REMARK   28  A    between atoms: _64  and  _65
REMARK   29  A    between atoms: _70  and  _71
REMARK   30  A    between atoms: _73  and  _75
REMARK   31  A    between atoms: _75  and  _76
REMARK   32  A    between atoms: _75  and  _78
REMARK   33  A    between atoms: _78  and  _79
REMARK   34  A    between atoms: _79  and  _80
REMARK   35  A    between atoms: _80  and  _81
REMARK   36  A    between atoms: _81  and  _82
REMARK   37  A    between atoms: _86  and  _88
REMARK   38  A    between atoms: _88  and  _89
REMARK   39  A    between atoms: _88  and  _91
REMARK   40  A    between atoms: _91  and  _92
REMARK   41  A    between atoms: _97  and  _99
REMARK   42  A    between atoms: _99  and  _100
REMARK   43  A    between atoms: _103  and  _105
REMARK   44  A    between atoms: _105  and  _106
REMARK   45  A    between atoms: _105  and  _108
REMARK   46  A    between atoms: _108  and  _109
REMARK   47  A    between atoms: _115  and  _117
REMARK   48  A    between atoms: _117  and  _118
REMARK   49  A    between atoms: _117  and  _120
REMARK   50  A    between atoms: _120  and  _121
REMARK   51  A    between atoms: _121  and  _122
REMARK   52  A    between atoms: _122  and  _123
REMARK   53  A    between atoms: _123  and  _124
REMARK   54  A    between atoms: _128  and  _130
REMARK   55  A    between atoms: _130  and  _131
REMARK   56  A    between atoms: _130  and  _133
REMARK   57  A    between atoms: _133  and  _134
REMARK   58  A    between atoms: _139  and  _141
REMARK   59  A    between atoms: _141  and  _142
REMARK   60  A    between atoms: _141  and  _144
REMARK   61  A    between atoms: _144  and  _145
REMARK   62  A    between atoms: _150  and  _152
REMARK   63  A    between atoms: _152  and  _153
REMARK   64  A    between atoms: _152  and  _155
REMARK   65  A    between atoms: _155  and  _156
REMARK   66  A    between atoms: _158  and  _160
REMARK   67  A    between atoms: _160  and  _161
REMARK   68  A    between atoms: _160  and  _163
REMARK   69  A    between atoms: _163  and  _164
REMARK   70  A    between atoms: _164  and  _165
REMARK   71  A    between atoms: _170  and  _172
REMARK   72  A    between atoms: _172  and  _173
REMARK   73  A    between atoms: _172  and  _175
REMARK   74  A    between atoms: _175  and  _176
REMARK   75  A    between atoms: _179  and  _181
REMARK   76  A    between atoms: _181  and  _182
REMARK   77  A    between atoms: _181  and  _184
REMARK   78  A    between atoms: _184  and  _185
REMARK   79  A    between atoms: _188  and  _190
REMARK   80  A    between atoms: _190  and  _191
REMARK   81  A    between atoms: _190  and  _193
REMARK   82  A    between atoms: _193  and  _194
REMARK   83  A    between atoms: _200  and  _202
REMARK   84  A    between atoms: _202  and  _203
REMARK   85  A    between atoms: _202  and  _205
REMARK   86  A    between atoms: _205  and  _206
REMARK   87  A    between atoms: _209  and  _211
REMARK   88  A    between atoms: _211  and  _212
REMARK   89  A    between atoms: _211  and  _214
REMARK   90  A    between atoms: _214  and  _215
REMARK   91  A    between atoms: _215  and  _216
REMARK   92  A    between atoms: _221  and  _223
REMARK   93  A    between atoms: _223  and  _224
REMARK   94  A    between atoms: _223  and  _226
REMARK   95  A    between atoms: _226  and  _227
REMARK   96  A    between atoms: _233  and  _235
REMARK   97  A    between atoms: _235  and  _236
REMARK   98  A    between atoms: _235  and  _238
REMARK   99  A    between atoms: _241  and  _243
REMARK  100  A    between atoms: _243  and  _244
REMARK  101  A    between atoms: _243  and  _246
REMARK  102  A    between atoms: _246  and  _247
REMARK  103  A    between atoms: _252  and  _253
REMARK  104  A    between atoms: _255  and  _257
REMARK  105  A    between atoms: _257  and  _258
REMARK  106  A    between atoms: _257  and  _260
REMARK  107  A    between atoms: _260  and  _261
REMARK  108  A    between atoms: _261  and  _262
REMARK  109  A    between atoms: _262  and  _263
REMARK  110  A    between atoms: _263  and  _264
REMARK  111  A    between atoms: _268  and  _270
REMARK  112  A    between atoms: _270  and  _271
REMARK  113  A    between atoms: _270  and  _273
REMARK  114  A    between atoms: _273  and  _274
REMARK  115  A    between atoms: _279  and  _281
REMARK  116  A    between atoms: _281  and  _282
REMARK  117  A    between atoms: _285  and  _287
REMARK  118  A    between atoms: _287  and  _288
REMARK  119  A    between atoms: _287  and  _290
REMARK  120  A    between atoms: _290  and  _291
REMARK                            x       y       z     vdW  Elec       q    Type
REMARK                         _______ _______ _______ _____ _____    ______ ____
ROOT
ATOM      1  O   HOH     1      -7.855 -11.777 -18.696  0.00  0.00    +0.000 OA
ENDROOT
TORSDOF 0
REMARK  Name = ../refined-set-2016/2ylc/2ylc_pocket.pdb
REMARK  120 active torsions:
REMARK  status: ('A' for Active; 'I' for Inactive)
REMARK    1  A    between atoms: _1  and  _3
REMARK    2  A    between atoms: _3  and  _4
REMARK    3  A    between atoms: _3  and  _6
REMARK    4  A    between atoms: _6  and  _7
REMARK    5  A    between atoms: _10  and  _12
REMARK    6  A    between atoms: _12  and  _13
REMARK    7  A    between atoms: _12  and  _15
REMARK    8  A    between atoms: _15  and  _16
REMARK    9  A    between atoms: _16  and  _17
REMARK   10  A    between atoms: _22  and  _24
REMARK   11  A    between atoms: _24  and  _25
REMARK   12  A    between atoms: _24  and  _27
REMARK   13  A    between atoms: _27  and  _28
REMARK   14  A    between atoms: _34  and  _36
REMARK   15  A    between atoms: _36  and  _37
REMARK   16  A    between atoms: _36  and  _39
REMARK   17  A    between atoms: _42  and  _44
REMARK   18  A    between atoms: _44  and  _45
REMARK   19  A    between atoms: _44  and  _47
REMARK   20  A    between atoms: _47  and  _48
REMARK   21  A    between atoms: _48  and  _49
REMARK   22  A    between atoms: _51  and  _53
REMARK   23  A    between atoms: _53  and  _54
REMARK   24  A    between atoms: _53  and  _56
REMARK   25  A    between atoms: _59  and  _61
REMARK   26  A    between atoms: _61  and  _62
REMARK   27  A    between atoms: _61  and  _64
REMARK   28  A    between atoms: _64  and  _65
REMARK   29  A    between atoms: _70  and  _71
REMARK   30  A    between atoms: _73  and  _75
REMARK   31  A    between atoms: _75  and  _76
REMARK   32  A    between atoms: _75  and  _78
REMARK   33  A    between atoms: _78  and  _79
REMARK   34  A    between atoms: _79  and  _80
REMARK   35  A    between atoms: _80  and  _81
REMARK   36  A    between atoms: _81  and  _82
REMARK   37  A    between atoms: _86  and  _88
REMARK   38  A    between atoms: _88  and  _89
REMARK   39  A    between atoms: _88  and  _91
REMARK   40  A    between atoms: _91  and  _92
REMARK   41  A    between atoms: _97  and  _99
REMARK   42  A    between atoms: _99  and  _100
REMARK   43  A    between atoms: _103  and  _105
REMARK   44  A    between atoms: _105  and  _106
REMARK   45  A    between atoms: _105  and  _108
REMARK   46  A    between atoms: _108  and  _109
REMARK   47  A    between atoms: _115  and  _117
REMARK   48  A    between atoms: _117  and  _118
REMARK   49  A    between atoms: _117  and  _120
REMARK   50  A    between atoms: _120  and  _121
REMARK   51  A    between atoms: _121  and  _122
REMARK   52  A    between atoms: _122  and  _123
REMARK   53  A    between atoms: _123  and  _124
REMARK   54  A    between atoms: _128  and  _130
REMARK   55  A    between atoms: _130  and  _131
REMARK   56  A    between atoms: _130  and  _133
REMARK   57  A    between atoms: _133  and  _134
REMARK   58  A    between atoms: _139  and  _141
REMARK   59  A    between atoms: _141  and  _142
REMARK   60  A    between atoms: _141  and  _144
REMARK   61  A    between atoms: _144  and  _145
REMARK   62  A    between atoms: _150  and  _152
REMARK   63  A    between atoms: _152  and  _153
REMARK   64  A    between atoms: _152  and  _155
REMARK   65  A    between atoms: _155  and  _156
REMARK   66  A    between atoms: _158  and  _160
REMARK   67  A    between atoms: _160  and  _161
REMARK   68  A    between atoms: _160  and  _163
REMARK   69  A    between atoms: _163  and  _164
REMARK   70  A    between atoms: _164  and  _165
REMARK   71  A    between atoms: _170  and  _172
REMARK   72  A    between atoms: _172  and  _173
REMARK   73  A    between atoms: _172  and  _175
REMARK   74  A    between atoms: _175  and  _176
REMARK   75  A    between atoms: _179  and  _181
REMARK   76  A    between atoms: _181  and  _182
REMARK   77  A    between atoms: _181  and  _184
REMARK   78  A    between atoms: _184  and  _185
REMARK   79  A    between atoms: _188  and  _190
REMARK   80  A    between atoms: _190  and  _191
REMARK   81  A    between atoms: _190  and  _193
REMARK   82  A    between atoms: _193  and  _194
REMARK   83  A    between atoms: _200  and  _202
REMARK   84  A    between atoms: _202  and  _203
REMARK   85  A    between atoms: _202  and  _205
REMARK   86  A    between atoms: _205  and  _206
REMARK   87  A    between atoms: _209  and  _211
REMARK   88  A    between atoms: _211  and  _212
REMARK   89  A    between atoms: _211  and  _214
REMARK   90  A    between atoms: _214  and  _215
REMARK   91  A    between atoms: _215  and  _216
REMARK   92  A    between atoms: _221  and  _223
REMARK   93  A    between atoms: _223  and  _224
REMARK   94  A    between atoms: _223  and  _226
REMARK   95  A    between atoms: _226  and  _227
REMARK   96  A    between atoms: _233  and  _235
REMARK   97  A    between atoms: _235  and  _236
REMARK   98  A    between atoms: _235  and  _238
REMARK   99  A    between atoms: _241  and  _243
REMARK  100  A    between atoms: _243  and  _244
REMARK  101  A    between atoms: _243  and  _246
REMARK  102  A    between atoms: _246  and  _247
REMARK  103  A    between atoms: _252  and  _253
REMARK  104  A    between atoms: _255  and  _257
REMARK  105  A    between atoms: _257  and  _258
REMARK  106  A    between atoms: _257  and  _260
REMARK  107  A    between atoms: _260  and  _261
REMARK  108  A    between atoms: _261  and  _262
REMARK  109  A    between atoms: _262  and  _263
REMARK  110  A    between atoms: _263  and  _264
REMARK  111  A    between atoms: _268  and  _270
REMARK  112  A    between atoms: _270  and  _271
REMARK  113  A    between atoms: _270  and  _273
REMARK  114  A    between atoms: _273  and  _274
REMARK  115  A    between atoms: _279  and  _281
REMARK  116  A    between atoms: _281  and  _282
REMARK  117  A    between atoms: _285  and  _287
REMARK  118  A    between atoms: _287  and  _288
REMARK  119  A    between atoms: _287  and  _290
REMARK  120  A    between atoms: _290  and  _291
REMARK                            x       y       z     vdW  Elec       q    Type
REMARK                         _______ _______ _______ _____ _____    ______ ____
ROOT
ATOM      1  O   HOH     1      -8.855   0.787 -10.151  0.00  0.00    +0.000 OA
ENDROOT
TORSDOF 0
REMARK  Name = ../refined-set-2016/2ylc/2ylc_pocket.pdb
REMARK  120 active torsions:
REMARK  status: ('A' for Active; 'I' for Inactive)
REMARK    1  A    between atoms: _1  and  _3
REMARK    2  A    between atoms: _3  and  _4
REMARK    3  A    between atoms: _3  and  _6
REMARK    4  A    between atoms: _6  and  _7
REMARK    5  A    between atoms: _10  and  _12
REMARK    6  A    between atoms: _12  and  _13
REMARK    7  A    between atoms: _12  and  _15
REMARK    8  A    between atoms: _15  and  _16
REMARK    9  A    between atoms: _16  and  _17
REMARK   10  A    between atoms: _22  and  _24
REMARK   11  A    between atoms: _24  and  _25
REMARK   12  A    between atoms: _24  and  _27
REMARK   13  A    between atoms: _27  and  _28
REMARK   14  A    between atoms: _34  and  _36
REMARK   15  A    between atoms: _36  and  _37
REMARK   16  A    between atoms: _36  and  _39
REMARK   17  A    between atoms: _42  and  _44
REMARK   18  A    between atoms: _44  and  _45
REMARK   19  A    between atoms: _44  and  _47
REMARK   20  A    between atoms: _47  and  _48
REMARK   21  A    between atoms: _48  and  _49
REMARK   22  A    between atoms: _51  and  _53
REMARK   23  A    between atoms: _53  and  _54
REMARK   24  A    between atoms: _53  and  _56
REMARK   25  A    between atoms: _59  and  _61
REMARK   26  A    between atoms: _61  and  _62
REMARK   27  A    between atoms: _61  and  _64
REMARK   28  A    between atoms: _64  and  _65
REMARK   29  A    between atoms: _70  and  _71
REMARK   30  A    between atoms: _73  and  _75
REMARK   31  A    between atoms: _75  and  _76
REMARK   32  A    between atoms: _75  and  _78
REMARK   33  A    between atoms: _78  and  _79
REMARK   34  A    between atoms: _79  and  _80
REMARK   35  A    between atoms: _80  and  _81
REMARK   36  A    between atoms: _81  and  _82
REMARK   37  A    between atoms: _86  and  _88
REMARK   38  A    between atoms: _88  and  _89
REMARK   39  A    between atoms: _88  and  _91
REMARK   40  A    between atoms: _91  and  _92
REMARK   41  A    between atoms: _97  and  _99
REMARK   42  A    between atoms: _99  and  _100
REMARK   43  A    between atoms: _103  and  _105
REMARK   44  A    between atoms: _105  and  _106
REMARK   45  A    between atoms: _105  and  _108
REMARK   46  A    between atoms: _108  and  _109
REMARK   47  A    between atoms: _115  and  _117
REMARK   48  A    between atoms: _117  and  _118
REMARK   49  A    between atoms: _117  and  _120
REMARK   50  A    between atoms: _120  and  _121
REMARK   51  A    between atoms: _121  and  _122
REMARK   52  A    between atoms: _122  and  _123
REMARK   53  A    between atoms: _123  and  _124
REMARK   54  A    between atoms: _128  and  _130
REMARK   55  A    between atoms: _130  and  _131
REMARK   56  A    between atoms: _130  and  _133
REMARK   57  A    between atoms: _133  and  _134
REMARK   58  A    between atoms: _139  and  _141
REMARK   59  A    between atoms: _141  and  _142
REMARK   60  A    between atoms: _141  and  _144
REMARK   61  A    between atoms: _144  and  _145
REMARK   62  A    between atoms: _150  and  _152
REMARK   63  A    between atoms: _152  and  _153
REMARK   64  A    between atoms: _152  and  _155
REMARK   65  A    between atoms: _155  and  _156
REMARK   66  A    between atoms: _158  and  _160
REMARK   67  A    between atoms: _160  and  _161
REMARK   68  A    between atoms: _160  and  _163
REMARK   69  A    between atoms: _163  and  _164
REMARK   70  A    between atoms: _164  and  _165
REMARK   71  A    between atoms: _170  and  _172
REMARK   72  A    between atoms: _172  and  _173
REMARK   73  A    between atoms: _172  and  _175
REMARK   74  A    between atoms: _175  and  _176
REMARK   75  A    between atoms: _179  and  _181
REMARK   76  A    between atoms: _181  and  _182
REMARK   77  A    between atoms: _181  and  _184
REMARK   78  A    between atoms: _184  and  _185
REMARK   79  A    between atoms: _188  and  _190
REMARK   80  A    between atoms: _190  and  _191
REMARK   81  A    between atoms: _190  and  _193
REMARK   82  A    between atoms: _193  and  _194
REMARK   83  A    between atoms: _200  and  _202
REMARK   84  A    between atoms: _202  and  _203
REMARK   85  A    between atoms: _202  and  _205
REMARK   86  A    between atoms: _205  and  _206
REMARK   87  A    between atoms: _209  and  _211
REMARK   88  A    between atoms: _211  and  _212
REMARK   89  A    between atoms: _211  and  _214
REMARK   90  A    between atoms: _214  and  _215
REMARK   91  A    between atoms: _215  and  _216
REMARK   92  A    between atoms: _221  and  _223
REMARK   93  A    between atoms: _223  and  _224
REMARK   94  A    between atoms: _223  and  _226
REMARK   95  A    between atoms: _226  and  _227
REMARK   96  A    between atoms: _233  and  _235
REMARK   97  A    between atoms: _235  and  _236
REMARK   98  A    between atoms: _235  and  _238
REMARK   99  A    between atoms: _241  and  _243
REMARK  100  A    between atoms: _243  and  _244
REMARK  101  A    between atoms: _243  and  _246
REMARK  102  A    between atoms: _246  and  _247
REMARK  103  A    between atoms: _252  and  _253
REMARK  104  A    between atoms: _255  and  _257
REMARK  105  A    between atoms: _257  and  _258
REMARK  106  A    between atoms: _257  and  _260
REMARK  107  A    between atoms: _260  and  _261
REMARK  108  A    between atoms: _261  and  _262
REMARK  109  A    between atoms: _262  and  _263
REMARK  110  A    between atoms: _263  and  _264
REMARK  111  A    between atoms: _268  and  _270
REMARK  112  A    between atoms: _270  and  _271
REMARK  113  A    between atoms: _270  and  _273
REMARK  114  A    between atoms: _273  and  _274
REMARK  115  A    between atoms: _279  and  _281
REMARK  116  A    between atoms: _281  and  _282
REMARK  117  A    between atoms: _285  and  _287
REMARK  118  A    between atoms: _287  and  _288
REMARK  119  A    between atoms: _287  and  _290
REMARK  120  A    between atoms: _290  and  _291
REMARK                            x       y       z     vdW  Elec       q    Type
REMARK                         _______ _______ _______ _____ _____    ______ ____
ROOT
ATOM      1  O   HOH     1      -3.357  -1.932  -5.678  0.00  0.00    +0.000 OA
ENDROOT
TORSDOF 0
REMARK  Name = ../refined-set-2016/2ylc/2ylc_pocket.pdb
REMARK  120 active torsions:
REMARK  status: ('A' for Active; 'I' for Inactive)
REMARK    1  A    between atoms: _1  and  _3
REMARK    2  A    between atoms: _3  and  _4
REMARK    3  A    between atoms: _3  and  _6
REMARK    4  A    between atoms: _6  and  _7
REMARK    5  A    between atoms: _10  and  _12
REMARK    6  A    between atoms: _12  and  _13
REMARK    7  A    between atoms: _12  and  _15
REMARK    8  A    between atoms: _15  and  _16
REMARK    9  A    between atoms: _16  and  _17
REMARK   10  A    between atoms: _22  and  _24
REMARK   11  A    between atoms: _24  and  _25
REMARK   12  A    between atoms: _24  and  _27
REMARK   13  A    between atoms: _27  and  _28
REMARK   14  A    between atoms: _34  and  _36
REMARK   15  A    between atoms: _36  and  _37
REMARK   16  A    between atoms: _36  and  _39
REMARK   17  A    between atoms: _42  and  _44
REMARK   18  A    between atoms: _44  and  _45
REMARK   19  A    between atoms: _44  and  _47
REMARK   20  A    between atoms: _47  and  _48
REMARK   21  A    between atoms: _48  and  _49
REMARK   22  A    between atoms: _51  and  _53
REMARK   23  A    between atoms: _53  and  _54
REMARK   24  A    between atoms: _53  and  _56
REMARK   25  A    between atoms: _59  and  _61
REMARK   26  A    between atoms: _61  and  _62
REMARK   27  A    between atoms: _61  and  _64
REMARK   28  A    between atoms: _64  and  _65
REMARK   29  A    between atoms: _70  and  _71
REMARK   30  A    between atoms: _73  and  _75
REMARK   31  A    between atoms: _75  and  _76
REMARK   32  A    between atoms: _75  and  _78
REMARK   33  A    between atoms: _78  and  _79
REMARK   34  A    between atoms: _79  and  _80
REMARK   35  A    between atoms: _80  and  _81
REMARK   36  A    between atoms: _81  and  _82
REMARK   37  A    between atoms: _86  and  _88
REMARK   38  A    between atoms: _88  and  _89
REMARK   39  A    between atoms: _88  and  _91
REMARK   40  A    between atoms: _91  and  _92
REMARK   41  A    between atoms: _97  and  _99
REMARK   42  A    between atoms: _99  and  _100
REMARK   43  A    between atoms: _103  and  _105
REMARK   44  A    between atoms: _105  and  _106
REMARK   45  A    between atoms: _105  and  _108
REMARK   46  A    between atoms: _108  and  _109
REMARK   47  A    between atoms: _115  and  _117
REMARK   48  A    between atoms: _117  and  _118
REMARK   49  A    between atoms: _117  and  _120
REMARK   50  A    between atoms: _120  and  _121
REMARK   51  A    between atoms: _121  and  _122
REMARK   52  A    between atoms: _122  and  _123
REMARK   53  A    between atoms: _123  and  _124
REMARK   54  A    between atoms: _128  and  _130
REMARK   55  A    between atoms: _130  and  _131
REMARK   56  A    between atoms: _130  and  _133
REMARK   57  A    between atoms: _133  and  _134
REMARK   58  A    between atoms: _139  and  _141
REMARK   59  A    between atoms: _141  and  _142
REMARK   60  A    between atoms: _141  and  _144
REMARK   61  A    between atoms: _144  and  _145
REMARK   62  A    between atoms: _150  and  _152
REMARK   63  A    between atoms: _152  and  _153
REMARK   64  A    between atoms: _152  and  _155
REMARK   65  A    between atoms: _155  and  _156
REMARK   66  A    between atoms: _158  and  _160
REMARK   67  A    between atoms: _160  and  _161
REMARK   68  A    between atoms: _160  and  _163
REMARK   69  A    between atoms: _163  and  _164
REMARK   70  A    between atoms: _164  and  _165
REMARK   71  A    between atoms: _170  and  _172
REMARK   72  A    between atoms: _172  and  _173
REMARK   73  A    between atoms: _172  and  _175
REMARK   74  A    between atoms: _175  and  _176
REMARK   75  A    between atoms: _179  and  _181
REMARK   76  A    between atoms: _181  and  _182
REMARK   77  A    between atoms: _181  and  _184
REMARK   78  A    between atoms: _184  and  _185
REMARK   79  A    between atoms: _188  and  _190
REMARK   80  A    between atoms: _190  and  _191
REMARK   81  A    between atoms: _190  and  _193
REMARK   82  A    between atoms: _193  and  _194
REMARK   83  A    between atoms: _200  and  _202
REMARK   84  A    between atoms: _202  and  _203
REMARK   85  A    between atoms: _202  and  _205
REMARK   86  A    between atoms: _205  and  _206
REMARK   87  A    between atoms: _209  and  _211
REMARK   88  A    between atoms: _211  and  _212
REMARK   89  A    between atoms: _211  and  _214
REMARK   90  A    between atoms: _214  and  _215
REMARK   91  A    between atoms: _215  and  _216
REMARK   92  A    between atoms: _221  and  _223
REMARK   93  A    between atoms: _223  and  _224
REMARK   94  A    between atoms: _223  and  _226
REMARK   95  A    between atoms: _226  and  _227
REMARK   96  A    between atoms: _233  and  _235
REMARK   97  A    between atoms: _235  and  _236
REMARK   98  A    between atoms: _235  and  _238
REMARK   99  A    between atoms: _241  and  _243
REMARK  100  A    between atoms: _243  and  _244
REMARK  101  A    between atoms: _243  and  _246
REMARK  102  A    between atoms: _246  and  _247
REMARK  103  A    between atoms: _252  and  _253
REMARK  104  A    between atoms: _255  and  _257
REMARK  105  A    between atoms: _257  and  _258
REMARK  106  A    between atoms: _257  and  _260
REMARK  107  A    between atoms: _260  and  _261
REMARK  108  A    between atoms: _261  and  _262
REMARK  109  A    between atoms: _262  and  _263
REMARK  110  A    between atoms: _263  and  _264
REMARK  111  A    between atoms: _268  and  _270
REMARK  112  A    between atoms: _270  and  _271
REMARK  113  A    between atoms: _270  and  _273
REMARK  114  A    between atoms: _273  and  _274
REMARK  115  A    between atoms: _279  and  _281
REMARK  116  A    between atoms: _281  and  _282
REMARK  117  A    between atoms: _285  and  _287
REMARK  118  A    between atoms: _287  and  _288
REMARK  119  A    between atoms: _287  and  _290
REMARK  120  A    between atoms: _290  and  _291
REMARK                            x       y       z     vdW  Elec       q    Type
REMARK                         _______ _______ _______ _____ _____    ______ ____
ROOT
ATOM      1  O   HOH     1       0.304   3.772  -8.619  0.00  0.00    +0.000 OA
ENDROOT
TORSDOF 0
REMARK  Name = ../refined-set-2016/2ylc/2ylc_pocket.pdb
REMARK  120 active torsions:
REMARK  status: ('A' for Active; 'I' for Inactive)
REMARK    1  A    between atoms: _1  and  _3
REMARK    2  A    between atoms: _3  and  _4
REMARK    3  A    between atoms: _3  and  _6
REMARK    4  A    between atoms: _6  and  _7
REMARK    5  A    between atoms: _10  and  _12
REMARK    6  A    between atoms: _12  and  _13
REMARK    7  A    between atoms: _12  and  _15
REMARK    8  A    between atoms: _15  and  _16
REMARK    9  A    between atoms: _16  and  _17
REMARK   10  A    between atoms: _22  and  _24
REMARK   11  A    between atoms: _24  and  _25
REMARK   12  A    between atoms: _24  and  _27
REMARK   13  A    between atoms: _27  and  _28
REMARK   14  A    between atoms: _34  and  _36
REMARK   15  A    between atoms: _36  and  _37
REMARK   16  A    between atoms: _36  and  _39
REMARK   17  A    between atoms: _42  and  _44
REMARK   18  A    between atoms: _44  and  _45
REMARK   19  A    between atoms: _44  and  _47
REMARK   20  A    between atoms: _47  and  _48
REMARK   21  A    between atoms: _48  and  _49
REMARK   22  A    between atoms: _51  and  _53
REMARK   23  A    between atoms: _53  and  _54
REMARK   24  A    between atoms: _53  and  _56
REMARK   25  A    between atoms: _59  and  _61
REMARK   26  A    between atoms: _61  and  _62
REMARK   27  A    between atoms: _61  and  _64
REMARK   28  A    between atoms: _64  and  _65
REMARK   29  A    between atoms: _70  and  _71
REMARK   30  A    between atoms: _73  and  _75
REMARK   31  A    between atoms: _75  and  _76
REMARK   32  A    between atoms: _75  and  _78
REMARK   33  A    between atoms: _78  and  _79
REMARK   34  A    between atoms: _79  and  _80
REMARK   35  A    between atoms: _80  and  _81
REMARK   36  A    between atoms: _81  and  _82
REMARK   37  A    between atoms: _86  and  _88
REMARK   38  A    between atoms: _88  and  _89
REMARK   39  A    between atoms: _88  and  _91
REMARK   40  A    between atoms: _91  and  _92
REMARK   41  A    between atoms: _97  and  _99
REMARK   42  A    between atoms: _99  and  _100
REMARK   43  A    between atoms: _103  and  _105
REMARK   44  A    between atoms: _105  and  _106
REMARK   45  A    between atoms: _105  and  _108
REMARK   46  A    between atoms: _108  and  _109
REMARK   47  A    between atoms: _115  and  _117
REMARK   48  A    between atoms: _117  and  _118
REMARK   49  A    between atoms: _117  and  _120
REMARK   50  A    between atoms: _120  and  _121
REMARK   51  A    between atoms: _121  and  _122
REMARK   52  A    between atoms: _122  and  _123
REMARK   53  A    between atoms: _123  and  _124
REMARK   54  A    between atoms: _128  and  _130
REMARK   55  A    between atoms: _130  and  _131
REMARK   56  A    between atoms: _130  and  _133
REMARK   57  A    between atoms: _133  and  _134
REMARK   58  A    between atoms: _139  and  _141
REMARK   59  A    between atoms: _141  and  _142
REMARK   60  A    between atoms: _141  and  _144
REMARK   61  A    between atoms: _144  and  _145
REMARK   62  A    between atoms: _150  and  _152
REMARK   63  A    between atoms: _152  and  _153
REMARK   64  A    between atoms: _152  and  _155
REMARK   65  A    between atoms: _155  and  _156
REMARK   66  A    between atoms: _158  and  _160
REMARK   67  A    between atoms: _160  and  _161
REMARK   68  A    between atoms: _160  and  _163
REMARK   69  A    between atoms: _163  and  _164
REMARK   70  A    between atoms: _164  and  _165
REMARK   71  A    between atoms: _170  and  _172
REMARK   72  A    between atoms: _172  and  _173
REMARK   73  A    between atoms: _172  and  _175
REMARK   74  A    between atoms: _175  and  _176
REMARK   75  A    between atoms: _179  and  _181
REMARK   76  A    between atoms: _181  and  _182
REMARK   77  A    between atoms: _181  and  _184
REMARK   78  A    between atoms: _184  and  _185
REMARK   79  A    between atoms: _188  and  _190
REMARK   80  A    between atoms: _190  and  _191
REMARK   81  A    between atoms: _190  and  _193
REMARK   82  A    between atoms: _193  and  _194
REMARK   83  A    between atoms: _200  and  _202
REMARK   84  A    between atoms: _202  and  _203
REMARK   85  A    between atoms: _202  and  _205
REMARK   86  A    between atoms: _205  and  _206
REMARK   87  A    between atoms: _209  and  _211
REMARK   88  A    between atoms: _211  and  _212
REMARK   89  A    between atoms: _211  and  _214
REMARK   90  A    between atoms: _214  and  _215
REMARK   91  A    between atoms: _215  and  _216
REMARK   92  A    between atoms: _221  and  _223
REMARK   93  A    between atoms: _223  and  _224
REMARK   94  A    between atoms: _223  and  _226
REMARK   95  A    between atoms: _226  and  _227
REMARK   96  A    between atoms: _233  and  _235
REMARK   97  A    between atoms: _235  and  _236
REMARK   98  A    between atoms: _235  and  _238
REMARK   99  A    between atoms: _241  and  _243
REMARK  100  A    between atoms: _243  and  _244
REMARK  101  A    between atoms: _243  and  _246
REMARK  102  A    between atoms: _246  and  _247
REMARK  103  A    between atoms: _252  and  _253
REMARK  104  A    between atoms: _255  and  _257
REMARK  105  A    between atoms: _257  and  _258
REMARK  106  A    between atoms: _257  and  _260
REMARK  107  A    between atoms: _260  and  _261
REMARK  108  A    between atoms: _261  and  _262
REMARK  109  A    between atoms: _262  and  _263
REMARK  110  A    between atoms: _263  and  _264
REMARK  111  A    between atoms: _268  and  _270
REMARK  112  A    between atoms: _270  and  _271
REMARK  113  A    between atoms: _270  and  _273
REMARK  114  A    between atoms: _273  and  _274
REMARK  115  A    between atoms: _279  and  _281
REMARK  116  A    between atoms: _281  and  _282
REMARK  117  A    between atoms: _285  and  _287
REMARK  118  A    between atoms: _287  and  _288
REMARK  119  A    between atoms: _287  and  _290
REMARK  120  A    between atoms: _290  and  _291
REMARK                            x       y       z     vdW  Elec       q    Type
REMARK                         _______ _______ _______ _____ _____    ______ ____
ROOT
ATOM      1  O   HOH     1      -1.115  -4.455 -15.073  0.00  0.00    +0.000 OA
ENDROOT
TORSDOF 0
REMARK  Name = ../refined-set-2016/2ylc/2ylc_pocket.pdb
REMARK  120 active torsions:
REMARK  status: ('A' for Active; 'I' for Inactive)
REMARK    1  A    between atoms: _1  and  _3
REMARK    2  A    between atoms: _3  and  _4
REMARK    3  A    between atoms: _3  and  _6
REMARK    4  A    between atoms: _6  and  _7
REMARK    5  A    between atoms: _10  and  _12
REMARK    6  A    between atoms: _12  and  _13
REMARK    7  A    between atoms: _12  and  _15
REMARK    8  A    between atoms: _15  and  _16
REMARK    9  A    between atoms: _16  and  _17
REMARK   10  A    between atoms: _22  and  _24
REMARK   11  A    between atoms: _24  and  _25
REMARK   12  A    between atoms: _24  and  _27
REMARK   13  A    between atoms: _27  and  _28
REMARK   14  A    between atoms: _34  and  _36
REMARK   15  A    between atoms: _36  and  _37
REMARK   16  A    between atoms: _36  and  _39
REMARK   17  A    between atoms: _42  and  _44
REMARK   18  A    between atoms: _44  and  _45
REMARK   19  A    between atoms: _44  and  _47
REMARK   20  A    between atoms: _47  and  _48
REMARK   21  A    between atoms: _48  and  _49
REMARK   22  A    between atoms: _51  and  _53
REMARK   23  A    between atoms: _53  and  _54
REMARK   24  A    between atoms: _53  and  _56
REMARK   25  A    between atoms: _59  and  _61
REMARK   26  A    between atoms: _61  and  _62
REMARK   27  A    between atoms: _61  and  _64
REMARK   28  A    between atoms: _64  and  _65
REMARK   29  A    between atoms: _70  and  _71
REMARK   30  A    between atoms: _73  and  _75
REMARK   31  A    between atoms: _75  and  _76
REMARK   32  A    between atoms: _75  and  _78
REMARK   33  A    between atoms: _78  and  _79
REMARK   34  A    between atoms: _79  and  _80
REMARK   35  A    between atoms: _80  and  _81
REMARK   36  A    between atoms: _81  and  _82
REMARK   37  A    between atoms: _86  and  _88
REMARK   38  A    between atoms: _88  and  _89
REMARK   39  A    between atoms: _88  and  _91
REMARK   40  A    between atoms: _91  and  _92
REMARK   41  A    between atoms: _97  and  _99
REMARK   42  A    between atoms: _99  and  _100
REMARK   43  A    between atoms: _103  and  _105
REMARK   44  A    between atoms: _105  and  _106
REMARK   45  A    between atoms: _105  and  _108
REMARK   46  A    between atoms: _108  and  _109
REMARK   47  A    between atoms: _115  and  _117
REMARK   48  A    between atoms: _117  and  _118
REMARK   49  A    between atoms: _117  and  _120
REMARK   50  A    between atoms: _120  and  _121
REMARK   51  A    between atoms: _121  and  _122
REMARK   52  A    between atoms: _122  and  _123
REMARK   53  A    between atoms: _123  and  _124
REMARK   54  A    between atoms: _128  and  _130
REMARK   55  A    between atoms: _130  and  _131
REMARK   56  A    between atoms: _130  and  _133
REMARK   57  A    between atoms: _133  and  _134
REMARK   58  A    between atoms: _139  and  _141
REMARK   59  A    between atoms: _141  and  _142
REMARK   60  A    between atoms: _141  and  _144
REMARK   61  A    between atoms: _144  and  _145
REMARK   62  A    between atoms: _150  and  _152
REMARK   63  A    between atoms: _152  and  _153
REMARK   64  A    between atoms: _152  and  _155
REMARK   65  A    between atoms: _155  and  _156
REMARK   66  A    between atoms: _158  and  _160
REMARK   67  A    between atoms: _160  and  _161
REMARK   68  A    between atoms: _160  and  _163
REMARK   69  A    between atoms: _163  and  _164
REMARK   70  A    between atoms: _164  and  _165
REMARK   71  A    between atoms: _170  and  _172
REMARK   72  A    between atoms: _172  and  _173
REMARK   73  A    between atoms: _172  and  _175
REMARK   74  A    between atoms: _175  and  _176
REMARK   75  A    between atoms: _179  and  _181
REMARK   76  A    between atoms: _181  and  _182
REMARK   77  A    between atoms: _181  and  _184
REMARK   78  A    between atoms: _184  and  _185
REMARK   79  A    between atoms: _188  and  _190
REMARK   80  A    between atoms: _190  and  _191
REMARK   81  A    between atoms: _190  and  _193
REMARK   82  A    between atoms: _193  and  _194
REMARK   83  A    between atoms: _200  and  _202
REMARK   84  A    between atoms: _202  and  _203
REMARK   85  A    between atoms: _202  and  _205
REMARK   86  A    between atoms: _205  and  _206
REMARK   87  A    between atoms: _209  and  _211
REMARK   88  A    between atoms: _211  and  _212
REMARK   89  A    between atoms: _211  and  _214
REMARK   90  A    between atoms: _214  and  _215
REMARK   91  A    between atoms: _215  and  _216
REMARK   92  A    between atoms: _221  and  _223
REMARK   93  A    between atoms: _223  and  _224
REMARK   94  A    between atoms: _223  and  _226
REMARK   95  A    between atoms: _226  and  _227
REMARK   96  A    between atoms: _233  and  _235
REMARK   97  A    between atoms: _235  and  _236
REMARK   98  A    between atoms: _235  and  _238
REMARK   99  A    between atoms: _241  and  _243
REMARK  100  A    between atoms: _243  and  _244
REMARK  101  A    between atoms: _243  and  _246
REMARK  102  A    between atoms: _246  and  _247
REMARK  103  A    between atoms: _252  and  _253
REMARK  104  A    between atoms: _255  and  _257
REMARK  105  A    between atoms: _257  and  _258
REMARK  106  A    between atoms: _257  and  _260
REMARK  107  A    between atoms: _260  and  _261
REMARK  108  A    between atoms: _261  and  _262
REMARK  109  A    between atoms: _262  and  _263
REMARK  110  A    between atoms: _263  and  _264
REMARK  111  A    between atoms: _268  and  _270
REMARK  112  A    between atoms: _270  and  _271
REMARK  113  A    between atoms: _270  and  _273
REMARK  114  A    between atoms: _273  and  _274
REMARK  115  A    between atoms: _279  and  _281
REMARK  116  A    between atoms: _281  and  _282
REMARK  117  A    between atoms: _285  and  _287
REMARK  118  A    between atoms: _287  and  _288
REMARK  119  A    between atoms: _287  and  _290
REMARK  120  A    between atoms: _290  and  _291
REMARK                            x       y       z     vdW  Elec       q    Type
REMARK                         _______ _______ _______ _____ _____    ______ ____
ROOT
ATOM      1  O   HOH     1      -0.304  -3.772  -8.619  0.00  0.00    +0.000 OA
ENDROOT
TORSDOF 0
REMARK  Name = ../refined-set-2016/2ylc/2ylc_pocket.pdb
REMARK  120 active torsions:
REMARK  status: ('A' for Active; 'I' for Inactive)
REMARK    1  A    between atoms: _1  and  _3
REMARK    2  A    between atoms: _3  and  _4
REMARK    3  A    between atoms: _3  and  _6
REMARK    4  A    between atoms: _6  and  _7
REMARK    5  A    between atoms: _10  and  _12
REMARK    6  A    between atoms: _12  and  _13
REMARK    7  A    between atoms: _12  and  _15
REMARK    8  A    between atoms: _15  and  _16
REMARK    9  A    between atoms: _16  and  _17
REMARK   10  A    between atoms: _22  and  _24
REMARK   11  A    between atoms: _24  and  _25
REMARK   12  A    between atoms: _24  and  _27
REMARK   13  A    between atoms: _27  and  _28
REMARK   14  A    between atoms: _34  and  _36
REMARK   15  A    between atoms: _36  and  _37
REMARK   16  A    between atoms: _36  and  _39
REMARK   17  A    between atoms: _42  and  _44
REMARK   18  A    between atoms: _44  and  _45
REMARK   19  A    between atoms: _44  and  _47
REMARK   20  A    between atoms: _47  and  _48
REMARK   21  A    between atoms: _48  and  _49
REMARK   22  A    between atoms: _51  and  _53
REMARK   23  A    between atoms: _53  and  _54
REMARK   24  A    between atoms: _53  and  _56
REMARK   25  A    between atoms: _59  and  _61
REMARK   26  A    between atoms: _61  and  _62
REMARK   27  A    between atoms: _61  and  _64
REMARK   28  A    between atoms: _64  and  _65
REMARK   29  A    between atoms: _70  and  _71
REMARK   30  A    between atoms: _73  and  _75
REMARK   31  A    between atoms: _75  and  _76
REMARK   32  A    between atoms: _75  and  _78
REMARK   33  A    between atoms: _78  and  _79
REMARK   34  A    between atoms: _79  and  _80
REMARK   35  A    between atoms: _80  and  _81
REMARK   36  A    between atoms: _81  and  _82
REMARK   37  A    between atoms: _86  and  _88
REMARK   38  A    between atoms: _88  and  _89
REMARK   39  A    between atoms: _88  and  _91
REMARK   40  A    between atoms: _91  and  _92
REMARK   41  A    between atoms: _97  and  _99
REMARK   42  A    between atoms: _99  and  _100
REMARK   43  A    between atoms: _103  and  _105
REMARK   44  A    between atoms: _105  and  _106
REMARK   45  A    between atoms: _105  and  _108
REMARK   46  A    between atoms: _108  and  _109
REMARK   47  A    between atoms: _115  and  _117
REMARK   48  A    between atoms: _117  and  _118
REMARK   49  A    between atoms: _117  and  _120
REMARK   50  A    between atoms: _120  and  _121
REMARK   51  A    between atoms: _121  and  _122
REMARK   52  A    between atoms: _122  and  _123
REMARK   53  A    between atoms: _123  and  _124
REMARK   54  A    between atoms: _128  and  _130
REMARK   55  A    between atoms: _130  and  _131
REMARK   56  A    between atoms: _130  and  _133
REMARK   57  A    between atoms: _133  and  _134
REMARK   58  A    between atoms: _139  and  _141
REMARK   59  A    between atoms: _141  and  _142
REMARK   60  A    between atoms: _141  and  _144
REMARK   61  A    between atoms: _144  and  _145
REMARK   62  A    between atoms: _150  and  _152
REMARK   63  A    between atoms: _152  and  _153
REMARK   64  A    between atoms: _152  and  _155
REMARK   65  A    between atoms: _155  and  _156
REMARK   66  A    between atoms: _158  and  _160
REMARK   67  A    between atoms: _160  and  _161
REMARK   68  A    between atoms: _160  and  _163
REMARK   69  A    between atoms: _163  and  _164
REMARK   70  A    between atoms: _164  and  _165
REMARK   71  A    between atoms: _170  and  _172
REMARK   72  A    between atoms: _172  and  _173
REMARK   73  A    between atoms: _172  and  _175
REMARK   74  A    between atoms: _175  and  _176
REMARK   75  A    between atoms: _179  and  _181
REMARK   76  A    between atoms: _181  and  _182
REMARK   77  A    between atoms: _181  and  _184
REMARK   78  A    between atoms: _184  and  _185
REMARK   79  A    between atoms: _188  and  _190
REMARK   80  A    between atoms: _190  and  _191
REMARK   81  A    between atoms: _190  and  _193
REMARK   82  A    between atoms: _193  and  _194
REMARK   83  A    between atoms: _200  and  _202
REMARK   84  A    between atoms: _202  and  _203
REMARK   85  A    between atoms: _202  and  _205
REMARK   86  A    between atoms: _205  and  _206
REMARK   87  A    between atoms: _209  and  _211
REMARK   88  A    between atoms: _211  and  _212
REMARK   89  A    between atoms: _211  and  _214
REMARK   90  A    between atoms: _214  and  _215
REMARK   91  A    between atoms: _215  and  _216
REMARK   92  A    between atoms: _221  and  _223
REMARK   93  A    between atoms: _223  and  _224
REMARK   94  A    between atoms: _223  and  _226
REMARK   95  A    between atoms: _226  and  _227
REMARK   96  A    between atoms: _233  and  _235
REMARK   97  A    between atoms: _235  and  _236
REMARK   98  A    between atoms: _235  and  _238
REMARK   99  A    between atoms: _241  and  _243
REMARK  100  A    between atoms: _243  and  _244
REMARK  101  A    between atoms: _243  and  _246
REMARK  102  A    between atoms: _246  and  _247
REMARK  103  A    between atoms: _252  and  _253
REMARK  104  A    between atoms: _255  and  _257
REMARK  105  A    between atoms: _257  and  _258
REMARK  106  A    between atoms: _257  and  _260
REMARK  107  A    between atoms: _260  and  _261
REMARK  108  A    between atoms: _261  and  _262
REMARK  109  A    between atoms: _262  and  _263
REMARK  110  A    between atoms: _263  and  _264
REMARK  111  A    between atoms: _268  and  _270
REMARK  112  A    between atoms: _270  and  _271
REMARK  113  A    between atoms: _270  and  _273
REMARK  114  A    between atoms: _273  and  _274
REMARK  115  A    between atoms: _279  and  _281
REMARK  116  A    between atoms: _281  and  _282
REMARK  117  A    between atoms: _285  and  _287
REMARK  118  A    between atoms: _287  and  _288
REMARK  119  A    between atoms: _287  and  _290
REMARK  120  A    between atoms: _290  and  _291
REMARK                            x       y       z     vdW  Elec       q    Type
REMARK                         _______ _______ _______ _____ _____    ______ ____
ROOT
ATOM      1  O   HOH     1      -3.352   1.941  -5.678  0.00  0.00    +0.000 OA
ENDROOT
TORSDOF 0
REMARK  Name = ../refined-set-2016/2ylc/2ylc_pocket.pdb
REMARK  120 active torsions:
REMARK  status: ('A' for Active; 'I' for Inactive)
REMARK    1  A    between atoms: _1  and  _3
REMARK    2  A    between atoms: _3  and  _4
REMARK    3  A    between atoms: _3  and  _6
REMARK    4  A    between atoms: _6  and  _7
REMARK    5  A    between atoms: _10  and  _12
REMARK    6  A    between atoms: _12  and  _13
REMARK    7  A    between atoms: _12  and  _15
REMARK    8  A    between atoms: _15  and  _16
REMARK    9  A    between atoms: _16  and  _17
REMARK   10  A    between atoms: _22  and  _24
REMARK   11  A    between atoms: _24  and  _25
REMARK   12  A    between atoms: _24  and  _27
REMARK   13  A    between atoms: _27  and  _28
REMARK   14  A    between atoms: _34  and  _36
REMARK   15  A    between atoms: _36  and  _37
REMARK   16  A    between atoms: _36  and  _39
REMARK   17  A    between atoms: _42  and  _44
REMARK   18  A    between atoms: _44  and  _45
REMARK   19  A    between atoms: _44  and  _47
REMARK   20  A    between atoms: _47  and  _48
REMARK   21  A    between atoms: _48  and  _49
REMARK   22  A    between atoms: _51  and  _53
REMARK   23  A    between atoms: _53  and  _54
REMARK   24  A    between atoms: _53  and  _56
REMARK   25  A    between atoms: _59  and  _61
REMARK   26  A    between atoms: _61  and  _62
REMARK   27  A    between atoms: _61  and  _64
REMARK   28  A    between atoms: _64  and  _65
REMARK   29  A    between atoms: _70  and  _71
REMARK   30  A    between atoms: _73  and  _75
REMARK   31  A    between atoms: _75  and  _76
REMARK   32  A    between atoms: _75  and  _78
REMARK   33  A    between atoms: _78  and  _79
REMARK   34  A    between atoms: _79  and  _80
REMARK   35  A    between atoms: _80  and  _81
REMARK   36  A    between atoms: _81  and  _82
REMARK   37  A    between atoms: _86  and  _88
REMARK   38  A    between atoms: _88  and  _89
REMARK   39  A    between atoms: _88  and  _91
REMARK   40  A    between atoms: _91  and  _92
REMARK   41  A    between atoms: _97  and  _99
REMARK   42  A    between atoms: _99  and  _100
REMARK   43  A    between atoms: _103  and  _105
REMARK   44  A    between atoms: _105  and  _106
REMARK   45  A    between atoms: _105  and  _108
REMARK   46  A    between atoms: _108  and  _109
REMARK   47  A    between atoms: _115  and  _117
REMARK   48  A    between atoms: _117  and  _118
REMARK   49  A    between atoms: _117  and  _120
REMARK   50  A    between atoms: _120  and  _121
REMARK   51  A    between atoms: _121  and  _122
REMARK   52  A    between atoms: _122  and  _123
REMARK   53  A    between atoms: _123  and  _124
REMARK   54  A    between atoms: _128  and  _130
REMARK   55  A    between atoms: _130  and  _131
REMARK   56  A    between atoms: _130  and  _133
REMARK   57  A    between atoms: _133  and  _134
REMARK   58  A    between atoms: _139  and  _141
REMARK   59  A    between atoms: _141  and  _142
REMARK   60  A    between atoms: _141  and  _144
REMARK   61  A    between atoms: _144  and  _145
REMARK   62  A    between atoms: _150  and  _152
REMARK   63  A    between atoms: _152  and  _153
REMARK   64  A    between atoms: _152  and  _155
REMARK   65  A    between atoms: _155  and  _156
REMARK   66  A    between atoms: _158  and  _160
REMARK   67  A    between atoms: _160  and  _161
REMARK   68  A    between atoms: _160  and  _163
REMARK   69  A    between atoms: _163  and  _164
REMARK   70  A    between atoms: _164  and  _165
REMARK   71  A    between atoms: _170  and  _172
REMARK   72  A    between atoms: _172  and  _173
REMARK   73  A    between atoms: _172  and  _175
REMARK   74  A    between atoms: _175  and  _176
REMARK   75  A    between atoms: _179  and  _181
REMARK   76  A    between atoms: _181  and  _182
REMARK   77  A    between atoms: _181  and  _184
REMARK   78  A    between atoms: _184  and  _185
REMARK   79  A    between atoms: _188  and  _190
REMARK   80  A    between atoms: _190  and  _191
REMARK   81  A    between atoms: _190  and  _193
REMARK   82  A    between atoms: _193  and  _194
REMARK   83  A    between atoms: _200  and  _202
REMARK   84  A    between atoms: _202  and  _203
REMARK   85  A    between atoms: _202  and  _205
REMARK   86  A    between atoms: _205  and  _206
REMARK   87  A    between atoms: _209  and  _211
REMARK   88  A    between atoms: _211  and  _212
REMARK   89  A    between atoms: _211  and  _214
REMARK   90  A    between atoms: _214  and  _215
REMARK   91  A    between atoms: _215  and  _216
REMARK   92  A    between atoms: _221  and  _223
REMARK   93  A    between atoms: _223  and  _224
REMARK   94  A    between atoms: _223  and  _226
REMARK   95  A    between atoms: _226  and  _227
REMARK   96  A    between atoms: _233  and  _235
REMARK   97  A    between atoms: _235  and  _236
REMARK   98  A    between atoms: _235  and  _238
REMARK   99  A    between atoms: _241  and  _243
REMARK  100  A    between atoms: _243  and  _244
REMARK  101  A    between atoms: _243  and  _246
REMARK  102  A    between atoms: _246  and  _247
REMARK  103  A    between atoms: _252  and  _253
REMARK  104  A    between atoms: _255  and  _257
REMARK  105  A    between atoms: _257  and  _258
REMARK  106  A    between atoms: _257  and  _260
REMARK  107  A    between atoms: _260  and  _261
REMARK  108  A    between atoms: _261  and  _262
REMARK  109  A    between atoms: _262  and  _263
REMARK  110  A    between atoms: _263  and  _264
REMARK  111  A    between atoms: _268  and  _270
REMARK  112  A    between atoms: _270  and  _271
REMARK  113  A    between atoms: _270  and  _273
REMARK  114  A    between atoms: _273  and  _274
REMARK  115  A    between atoms: _279  and  _281
REMARK  116  A    between atoms: _281  and  _282
REMARK  117  A    between atoms: _285  and  _287
REMARK  118  A    between atoms: _287  and  _288
REMARK  119  A    between atoms: _287  and  _290
REMARK  120  A    between atoms: _290  and  _291
REMARK                            x       y       z     vdW  Elec       q    Type
REMARK                         _______ _______ _______ _____ _____    ______ ____
ROOT
ATOM      1  O   HOH     1       3.419   1.623  -8.619  0.00  0.00    +0.000 OA
ENDROOT
TORSDOF 0
REMARK  Name = ../refined-set-2016/2ylc/2ylc_pocket.pdb
REMARK  120 active torsions:
REMARK  status: ('A' for Active; 'I' for Inactive)
REMARK    1  A    between atoms: _1  and  _3
REMARK    2  A    between atoms: _3  and  _4
REMARK    3  A    between atoms: _3  and  _6
REMARK    4  A    between atoms: _6  and  _7
REMARK    5  A    between atoms: _10  and  _12
REMARK    6  A    between atoms: _12  and  _13
REMARK    7  A    between atoms: _12  and  _15
REMARK    8  A    between atoms: _15  and  _16
REMARK    9  A    between atoms: _16  and  _17
REMARK   10  A    between atoms: _22  and  _24
REMARK   11  A    between atoms: _24  and  _25
REMARK   12  A    between atoms: _24  and  _27
REMARK   13  A    between atoms: _27  and  _28
REMARK   14  A    between atoms: _34  and  _36
REMARK   15  A    between atoms: _36  and  _37
REMARK   16  A    between atoms: _36  and  _39
REMARK   17  A    between atoms: _42  and  _44
REMARK   18  A    between atoms: _44  and  _45
REMARK   19  A    between atoms: _44  and  _47
REMARK   20  A    between atoms: _47  and  _48
REMARK   21  A    between atoms: _48  and  _49
REMARK   22  A    between atoms: _51  and  _53
REMARK   23  A    between atoms: _53  and  _54
REMARK   24  A    between atoms: _53  and  _56
REMARK   25  A    between atoms: _59  and  _61
REMARK   26  A    between atoms: _61  and  _62
REMARK   27  A    between atoms: _61  and  _64
REMARK   28  A    between atoms: _64  and  _65
REMARK   29  A    between atoms: _70  and  _71
REMARK   30  A    between atoms: _73  and  _75
REMARK   31  A    between atoms: _75  and  _76
REMARK   32  A    between atoms: _75  and  _78
REMARK   33  A    between atoms: _78  and  _79
REMARK   34  A    between atoms: _79  and  _80
REMARK   35  A    between atoms: _80  and  _81
REMARK   36  A    between atoms: _81  and  _82
REMARK   37  A    between atoms: _86  and  _88
REMARK   38  A    between atoms: _88  and  _89
REMARK   39  A    between atoms: _88  and  _91
REMARK   40  A    between atoms: _91  and  _92
REMARK   41  A    between atoms: _97  and  _99
REMARK   42  A    between atoms: _99  and  _100
REMARK   43  A    between atoms: _103  and  _105
REMARK   44  A    between atoms: _105  and  _106
REMARK   45  A    between atoms: _105  and  _108
REMARK   46  A    between atoms: _108  and  _109
REMARK   47  A    between atoms: _115  and  _117
REMARK   48  A    between atoms: _117  and  _118
REMARK   49  A    between atoms: _117  and  _120
REMARK   50  A    between atoms: _120  and  _121
REMARK   51  A    between atoms: _121  and  _122
REMARK   52  A    between atoms: _122  and  _123
REMARK   53  A    between atoms: _123  and  _124
REMARK   54  A    between atoms: _128  and  _130
REMARK   55  A    between atoms: _130  and  _131
REMARK   56  A    between atoms: _130  and  _133
REMARK   57  A    between atoms: _133  and  _134
REMARK   58  A    between atoms: _139  and  _141
REMARK   59  A    between atoms: _141  and  _142
REMARK   60  A    between atoms: _141  and  _144
REMARK   61  A    between atoms: _144  and  _145
REMARK   62  A    between atoms: _150  and  _152
REMARK   63  A    between atoms: _152  and  _153
REMARK   64  A    between atoms: _152  and  _155
REMARK   65  A    between atoms: _155  and  _156
REMARK   66  A    between atoms: _158  and  _160
REMARK   67  A    between atoms: _160  and  _161
REMARK   68  A    between atoms: _160  and  _163
REMARK   69  A    between atoms: _163  and  _164
REMARK   70  A    between atoms: _164  and  _165
REMARK   71  A    between atoms: _170  and  _172
REMARK   72  A    between atoms: _172  and  _173
REMARK   73  A    between atoms: _172  and  _175
REMARK   74  A    between atoms: _175  and  _176
REMARK   75  A    between atoms: _179  and  _181
REMARK   76  A    between atoms: _181  and  _182
REMARK   77  A    between atoms: _181  and  _184
REMARK   78  A    between atoms: _184  and  _185
REMARK   79  A    between atoms: _188  and  _190
REMARK   80  A    between atoms: _190  and  _191
REMARK   81  A    between atoms: _190  and  _193
REMARK   82  A    between atoms: _193  and  _194
REMARK   83  A    between atoms: _200  and  _202
REMARK   84  A    between atoms: _202  and  _203
REMARK   85  A    between atoms: _202  and  _205
REMARK   86  A    between atoms: _205  and  _206
REMARK   87  A    between atoms: _209  and  _211
REMARK   88  A    between atoms: _211  and  _212
REMARK   89  A    between atoms: _211  and  _214
REMARK   90  A    between atoms: _214  and  _215
REMARK   91  A    between atoms: _215  and  _216
REMARK   92  A    between atoms: _221  and  _223
REMARK   93  A    between atoms: _223  and  _224
REMARK   94  A    between atoms: _223  and  _226
REMARK   95  A    between atoms: _226  and  _227
REMARK   96  A    between atoms: _233  and  _235
REMARK   97  A    between atoms: _235  and  _236
REMARK   98  A    between atoms: _235  and  _238
REMARK   99  A    between atoms: _241  and  _243
REMARK  100  A    between atoms: _243  and  _244
REMARK  101  A    between atoms: _243  and  _246
REMARK  102  A    between atoms: _246  and  _247
REMARK  103  A    between atoms: _252  and  _253
REMARK  104  A    between atoms: _255  and  _257
REMARK  105  A    between atoms: _257  and  _258
REMARK  106  A    between atoms: _257  and  _260
REMARK  107  A    between atoms: _260  and  _261
REMARK  108  A    between atoms: _261  and  _262
REMARK  109  A    between atoms: _262  and  _263
REMARK  110  A    between atoms: _263  and  _264
REMARK  111  A    between atoms: _268  and  _270
REMARK  112  A    between atoms: _270  and  _271
REMARK  113  A    between atoms: _270  and  _273
REMARK  114  A    between atoms: _273  and  _274
REMARK  115  A    between atoms: _279  and  _281
REMARK  116  A    between atoms: _281  and  _282
REMARK  117  A    between atoms: _285  and  _287
REMARK  118  A    between atoms: _287  and  _288
REMARK  119  A    between atoms: _287  and  _290
REMARK  120  A    between atoms: _290  and  _291
REMARK                            x       y       z     vdW  Elec       q    Type
REMARK                         _______ _______ _______ _____ _____    ______ ____
ROOT
ATOM      1  O   HOH     1       3.301  -3.193 -15.073  0.00  0.00    +0.000 OA
ENDROOT
TORSDOF 0
REMARK  Name = ../refined-set-2016/2ylc/2ylc_pocket.pdb
REMARK  120 active torsions:
REMARK  status: ('A' for Active; 'I' for Inactive)
REMARK    1  A    between atoms: _1  and  _3
REMARK    2  A    between atoms: _3  and  _4
REMARK    3  A    between atoms: _3  and  _6
REMARK    4  A    between atoms: _6  and  _7
REMARK    5  A    between atoms: _10  and  _12
REMARK    6  A    between atoms: _12  and  _13
REMARK    7  A    between atoms: _12  and  _15
REMARK    8  A    between atoms: _15  and  _16
REMARK    9  A    between atoms: _16  and  _17
REMARK   10  A    between atoms: _22  and  _24
REMARK   11  A    between atoms: _24  and  _25
REMARK   12  A    between atoms: _24  and  _27
REMARK   13  A    between atoms: _27  and  _28
REMARK   14  A    between atoms: _34  and  _36
REMARK   15  A    between atoms: _36  and  _37
REMARK   16  A    between atoms: _36  and  _39
REMARK   17  A    between atoms: _42  and  _44
REMARK   18  A    between atoms: _44  and  _45
REMARK   19  A    between atoms: _44  and  _47
REMARK   20  A    between atoms: _47  and  _48
REMARK   21  A    between atoms: _48  and  _49
REMARK   22  A    between atoms: _51  and  _53
REMARK   23  A    between atoms: _53  and  _54
REMARK   24  A    between atoms: _53  and  _56
REMARK   25  A    between atoms: _59  and  _61
REMARK   26  A    between atoms: _61  and  _62
REMARK   27  A    between atoms: _61  and  _64
REMARK   28  A    between atoms: _64  and  _65
REMARK   29  A    between atoms: _70  and  _71
REMARK   30  A    between atoms: _73  and  _75
REMARK   31  A    between atoms: _75  and  _76
REMARK   32  A    between atoms: _75  and  _78
REMARK   33  A    between atoms: _78  and  _79
REMARK   34  A    between atoms: _79  and  _80
REMARK   35  A    between atoms: _80  and  _81
REMARK   36  A    between atoms: _81  and  _82
REMARK   37  A    between atoms: _86  and  _88
REMARK   38  A    between atoms: _88  and  _89
REMARK   39  A    between atoms: _88  and  _91
REMARK   40  A    between atoms: _91  and  _92
REMARK   41  A    between atoms: _97  and  _99
REMARK   42  A    between atoms: _99  and  _100
REMARK   43  A    between atoms: _103  and  _105
REMARK   44  A    between atoms: _105  and  _106
REMARK   45  A    between atoms: _105  and  _108
REMARK   46  A    between atoms: _108  and  _109
REMARK   47  A    between atoms: _115  and  _117
REMARK   48  A    between atoms: _117  and  _118
REMARK   49  A    between atoms: _117  and  _120
REMARK   50  A    between atoms: _120  and  _121
REMARK   51  A    between atoms: _121  and  _122
REMARK   52  A    between atoms: _122  and  _123
REMARK   53  A    between atoms: _123  and  _124
REMARK   54  A    between atoms: _128  and  _130
REMARK   55  A    between atoms: _130  and  _131
REMARK   56  A    between atoms: _130  and  _133
REMARK   57  A    between atoms: _133  and  _134
REMARK   58  A    between atoms: _139  and  _141
REMARK   59  A    between atoms: _141  and  _142
REMARK   60  A    between atoms: _141  and  _144
REMARK   61  A    between atoms: _144  and  _145
REMARK   62  A    between atoms: _150  and  _152
REMARK   63  A    between atoms: _152  and  _153
REMARK   64  A    between atoms: _152  and  _155
REMARK   65  A    between atoms: _155  and  _156
REMARK   66  A    between atoms: _158  and  _160
REMARK   67  A    between atoms: _160  and  _161
REMARK   68  A    between atoms: _160  and  _163
REMARK   69  A    between atoms: _163  and  _164
REMARK   70  A    between atoms: _164  and  _165
REMARK   71  A    between atoms: _170  and  _172
REMARK   72  A    between atoms: _172  and  _173
REMARK   73  A    between atoms: _172  and  _175
REMARK   74  A    between atoms: _175  and  _176
REMARK   75  A    between atoms: _179  and  _181
REMARK   76  A    between atoms: _181  and  _182
REMARK   77  A    between atoms: _181  and  _184
REMARK   78  A    between atoms: _184  and  _185
REMARK   79  A    between atoms: _188  and  _190
REMARK   80  A    between atoms: _190  and  _191
REMARK   81  A    between atoms: _190  and  _193
REMARK   82  A    between atoms: _193  and  _194
REMARK   83  A    between atoms: _200  and  _202
REMARK   84  A    between atoms: _202  and  _203
REMARK   85  A    between atoms: _202  and  _205
REMARK   86  A    between atoms: _205  and  _206
REMARK   87  A    between atoms: _209  and  _211
REMARK   88  A    between atoms: _211  and  _212
REMARK   89  A    between atoms: _211  and  _214
REMARK   90  A    between atoms: _214  and  _215
REMARK   91  A    between atoms: _215  and  _216
REMARK   92  A    between atoms: _221  and  _223
REMARK   93  A    between atoms: _223  and  _224
REMARK   94  A    between atoms: _223  and  _226
REMARK   95  A    between atoms: _226  and  _227
REMARK   96  A    between atoms: _233  and  _235
REMARK   97  A    between atoms: _235  and  _236
REMARK   98  A    between atoms: _235  and  _238
REMARK   99  A    between atoms: _241  and  _243
REMARK  100  A    between atoms: _243  and  _244
REMARK  101  A    between atoms: _243  and  _246
REMARK  102  A    between atoms: _246  and  _247
REMARK  103  A    between atoms: _252  and  _253
REMARK  104  A    between atoms: _255  and  _257
REMARK  105  A    between atoms: _257  and  _258
REMARK  106  A    between atoms: _257  and  _260
REMARK  107  A    between atoms: _260  and  _261
REMARK  108  A    between atoms: _261  and  _262
REMARK  109  A    between atoms: _262  and  _263
REMARK  110  A    between atoms: _263  and  _264
REMARK  111  A    between atoms: _268  and  _270
REMARK  112  A    between atoms: _270  and  _271
REMARK  113  A    between atoms: _270  and  _273
REMARK  114  A    between atoms: _273  and  _274
REMARK  115  A    between atoms: _279  and  _281
REMARK  116  A    between atoms: _281  and  _282
REMARK  117  A    between atoms: _285  and  _287
REMARK  118  A    between atoms: _287  and  _288
REMARK  119  A    between atoms: _287  and  _290
REMARK  120  A    between atoms: _290  and  _291
REMARK                            x       y       z     vdW  Elec       q    Type
REMARK                         _______ _______ _______ _____ _____    ______ ____
ROOT
ATOM      1  O   HOH     1       3.115  -2.149  -8.619  0.00  0.00    +0.000 OA
ENDROOT
TORSDOF 0
REMARK  Name = ../refined-set-2016/2ylc/2ylc_pocket.pdb
REMARK  120 active torsions:
REMARK  status: ('A' for Active; 'I' for Inactive)
REMARK    1  A    between atoms: _1  and  _3
REMARK    2  A    between atoms: _3  and  _4
REMARK    3  A    between atoms: _3  and  _6
REMARK    4  A    between atoms: _6  and  _7
REMARK    5  A    between atoms: _10  and  _12
REMARK    6  A    between atoms: _12  and  _13
REMARK    7  A    between atoms: _12  and  _15
REMARK    8  A    between atoms: _15  and  _16
REMARK    9  A    between atoms: _16  and  _17
REMARK   10  A    between atoms: _22  and  _24
REMARK   11  A    between atoms: _24  and  _25
REMARK   12  A    between atoms: _24  and  _27
REMARK   13  A    between atoms: _27  and  _28
REMARK   14  A    between atoms: _34  and  _36
REMARK   15  A    between atoms: _36  and  _37
REMARK   16  A    between atoms: _36  and  _39
REMARK   17  A    between atoms: _42  and  _44
REMARK   18  A    between atoms: _44  and  _45
REMARK   19  A    between atoms: _44  and  _47
REMARK   20  A    between atoms: _47  and  _48
REMARK   21  A    between atoms: _48  and  _49
REMARK   22  A    between atoms: _51  and  _53
REMARK   23  A    between atoms: _53  and  _54
REMARK   24  A    between atoms: _53  and  _56
REMARK   25  A    between atoms: _59  and  _61
REMARK   26  A    between atoms: _61  and  _62
REMARK   27  A    between atoms: _61  and  _64
REMARK   28  A    between atoms: _64  and  _65
REMARK   29  A    between atoms: _70  and  _71
REMARK   30  A    between atoms: _73  and  _75
REMARK   31  A    between atoms: _75  and  _76
REMARK   32  A    between atoms: _75  and  _78
REMARK   33  A    between atoms: _78  and  _79
REMARK   34  A    between atoms: _79  and  _80
REMARK   35  A    between atoms: _80  and  _81
REMARK   36  A    between atoms: _81  and  _82
REMARK   37  A    between atoms: _86  and  _88
REMARK   38  A    between atoms: _88  and  _89
REMARK   39  A    between atoms: _88  and  _91
REMARK   40  A    between atoms: _91  and  _92
REMARK   41  A    between atoms: _97  and  _99
REMARK   42  A    between atoms: _99  and  _100
REMARK   43  A    between atoms: _103  and  _105
REMARK   44  A    between atoms: _105  and  _106
REMARK   45  A    between atoms: _105  and  _108
REMARK   46  A    between atoms: _108  and  _109
REMARK   47  A    between atoms: _115  and  _117
REMARK   48  A    between atoms: _117  and  _118
REMARK   49  A    between atoms: _117  and  _120
REMARK   50  A    between atoms: _120  and  _121
REMARK   51  A    between atoms: _121  and  _122
REMARK   52  A    between atoms: _122  and  _123
REMARK   53  A    between atoms: _123  and  _124
REMARK   54  A    between atoms: _128  and  _130
REMARK   55  A    between atoms: _130  and  _131
REMARK   56  A    between atoms: _130  and  _133
REMARK   57  A    between atoms: _133  and  _134
REMARK   58  A    between atoms: _139  and  _141
REMARK   59  A    between atoms: _141  and  _142
REMARK   60  A    between atoms: _141  and  _144
REMARK   61  A    between atoms: _144  and  _145
REMARK   62  A    between atoms: _150  and  _152
REMARK   63  A    between atoms: _152  and  _153
REMARK   64  A    between atoms: _152  and  _155
REMARK   65  A    between atoms: _155  and  _156
REMARK   66  A    between atoms: _158  and  _160
REMARK   67  A    between atoms: _160  and  _161
REMARK   68  A    between atoms: _160  and  _163
REMARK   69  A    between atoms: _163  and  _164
REMARK   70  A    between atoms: _164  and  _165
REMARK   71  A    between atoms: _170  and  _172
REMARK   72  A    between atoms: _172  and  _173
REMARK   73  A    between atoms: _172  and  _175
REMARK   74  A    between atoms: _175  and  _176
REMARK   75  A    between atoms: _179  and  _181
REMARK   76  A    between atoms: _181  and  _182
REMARK   77  A    between atoms: _181  and  _184
REMARK   78  A    between atoms: _184  and  _185
REMARK   79  A    between atoms: _188  and  _190
REMARK   80  A    between atoms: _190  and  _191
REMARK   81  A    between atoms: _190  and  _193
REMARK   82  A    between atoms: _193  and  _194
REMARK   83  A    between atoms: _200  and  _202
REMARK   84  A    between atoms: _202  and  _203
REMARK   85  A    between atoms: _202  and  _205
REMARK   86  A    between atoms: _205  and  _206
REMARK   87  A    between atoms: _209  and  _211
REMARK   88  A    between atoms: _211  and  _212
REMARK   89  A    between atoms: _211  and  _214
REMARK   90  A    between atoms: _214  and  _215
REMARK   91  A    between atoms: _215  and  _216
REMARK   92  A    between atoms: _221  and  _223
REMARK   93  A    between atoms: _223  and  _224
REMARK   94  A    between atoms: _223  and  _226
REMARK   95  A    between atoms: _226  and  _227
REMARK   96  A    between atoms: _233  and  _235
REMARK   97  A    between atoms: _235  and  _236
REMARK   98  A    between atoms: _235  and  _238
REMARK   99  A    between atoms: _241  and  _243
REMARK  100  A    between atoms: _243  and  _244
REMARK  101  A    between atoms: _243  and  _246
REMARK  102  A    between atoms: _246  and  _247
REMARK  103  A    between atoms: _252  and  _253
REMARK  104  A    between atoms: _255  and  _257
REMARK  105  A    between atoms: _257  and  _258
REMARK  106  A    between atoms: _257  and  _260
REMARK  107  A    between atoms: _260  and  _261
REMARK  108  A    between atoms: _261  and  _262
REMARK  109  A    between atoms: _262  and  _263
REMARK  110  A    between atoms: _263  and  _264
REMARK  111  A    between atoms: _268  and  _270
REMARK  112  A    between atoms: _270  and  _271
REMARK  113  A    between atoms: _270  and  _273
REMARK  114  A    between atoms: _273  and  _274
REMARK  115  A    between atoms: _279  and  _281
REMARK  116  A    between atoms: _281  and  _282
REMARK  117  A    between atoms: _285  and  _287
REMARK  118  A    between atoms: _287  and  _288
REMARK  119  A    between atoms: _287  and  _290
REMARK  120  A    between atoms: _290  and  _291
REMARK                            x       y       z     vdW  Elec       q    Type
REMARK                         _______ _______ _______ _____ _____    ______ ____
ROOT
ATOM      1  O   HOH     1       0.651 -15.857 -20.363  0.00  0.00    +0.000 OA
ENDROOT
TORSDOF 0
REMARK  Name = ../refined-set-2016/2ylc/2ylc_pocket.pdb
REMARK  120 active torsions:
REMARK  status: ('A' for Active; 'I' for Inactive)
REMARK    1  A    between atoms: _1  and  _3
REMARK    2  A    between atoms: _3  and  _4
REMARK    3  A    between atoms: _3  and  _6
REMARK    4  A    between atoms: _6  and  _7
REMARK    5  A    between atoms: _10  and  _12
REMARK    6  A    between atoms: _12  and  _13
REMARK    7  A    between atoms: _12  and  _15
REMARK    8  A    between atoms: _15  and  _16
REMARK    9  A    between atoms: _16  and  _17
REMARK   10  A    between atoms: _22  and  _24
REMARK   11  A    between atoms: _24  and  _25
REMARK   12  A    between atoms: _24  and  _27
REMARK   13  A    between atoms: _27  and  _28
REMARK   14  A    between atoms: _34  and  _36
REMARK   15  A    between atoms: _36  and  _37
REMARK   16  A    between atoms: _36  and  _39
REMARK   17  A    between atoms: _42  and  _44
REMARK   18  A    between atoms: _44  and  _45
REMARK   19  A    between atoms: _44  and  _47
REMARK   20  A    between atoms: _47  and  _48
REMARK   21  A    between atoms: _48  and  _49
REMARK   22  A    between atoms: _51  and  _53
REMARK   23  A    between atoms: _53  and  _54
REMARK   24  A    between atoms: _53  and  _56
REMARK   25  A    between atoms: _59  and  _61
REMARK   26  A    between atoms: _61  and  _62
REMARK   27  A    between atoms: _61  and  _64
REMARK   28  A    between atoms: _64  and  _65
REMARK   29  A    between atoms: _70  and  _71
REMARK   30  A    between atoms: _73  and  _75
REMARK   31  A    between atoms: _75  and  _76
REMARK   32  A    between atoms: _75  and  _78
REMARK   33  A    between atoms: _78  and  _79
REMARK   34  A    between atoms: _79  and  _80
REMARK   35  A    between atoms: _80  and  _81
REMARK   36  A    between atoms: _81  and  _82
REMARK   37  A    between atoms: _86  and  _88
REMARK   38  A    between atoms: _88  and  _89
REMARK   39  A    between atoms: _88  and  _91
REMARK   40  A    between atoms: _91  and  _92
REMARK   41  A    between atoms: _97  and  _99
REMARK   42  A    between atoms: _99  and  _100
REMARK   43  A    between atoms: _103  and  _105
REMARK   44  A    between atoms: _105  and  _106
REMARK   45  A    between atoms: _105  and  _108
REMARK   46  A    between atoms: _108  and  _109
REMARK   47  A    between atoms: _115  and  _117
REMARK   48  A    between atoms: _117  and  _118
REMARK   49  A    between atoms: _117  and  _120
REMARK   50  A    between atoms: _120  and  _121
REMARK   51  A    between atoms: _121  and  _122
REMARK   52  A    between atoms: _122  and  _123
REMARK   53  A    between atoms: _123  and  _124
REMARK   54  A    between atoms: _128  and  _130
REMARK   55  A    between atoms: _130  and  _131
REMARK   56  A    between atoms: _130  and  _133
REMARK   57  A    between atoms: _133  and  _134
REMARK   58  A    between atoms: _139  and  _141
REMARK   59  A    between atoms: _141  and  _142
REMARK   60  A    between atoms: _141  and  _144
REMARK   61  A    between atoms: _144  and  _145
REMARK   62  A    between atoms: _150  and  _152
REMARK   63  A    between atoms: _152  and  _153
REMARK   64  A    between atoms: _152  and  _155
REMARK   65  A    between atoms: _155  and  _156
REMARK   66  A    between atoms: _158  and  _160
REMARK   67  A    between atoms: _160  and  _161
REMARK   68  A    between atoms: _160  and  _163
REMARK   69  A    between atoms: _163  and  _164
REMARK   70  A    between atoms: _164  and  _165
REMARK   71  A    between atoms: _170  and  _172
REMARK   72  A    between atoms: _172  and  _173
REMARK   73  A    between atoms: _172  and  _175
REMARK   74  A    between atoms: _175  and  _176
REMARK   75  A    between atoms: _179  and  _181
REMARK   76  A    between atoms: _181  and  _182
REMARK   77  A    between atoms: _181  and  _184
REMARK   78  A    between atoms: _184  and  _185
REMARK   79  A    between atoms: _188  and  _190
REMARK   80  A    between atoms: _190  and  _191
REMARK   81  A    between atoms: _190  and  _193
REMARK   82  A    between atoms: _193  and  _194
REMARK   83  A    between atoms: _200  and  _202
REMARK   84  A    between atoms: _202  and  _203
REMARK   85  A    between atoms: _202  and  _205
REMARK   86  A    between atoms: _205  and  _206
REMARK   87  A    between atoms: _209  and  _211
REMARK   88  A    between atoms: _211  and  _212
REMARK   89  A    between atoms: _211  and  _214
REMARK   90  A    between atoms: _214  and  _215
REMARK   91  A    between atoms: _215  and  _216
REMARK   92  A    between atoms: _221  and  _223
REMARK   93  A    between atoms: _223  and  _224
REMARK   94  A    between atoms: _223  and  _226
REMARK   95  A    between atoms: _226  and  _227
REMARK   96  A    between atoms: _233  and  _235
REMARK   97  A    between atoms: _235  and  _236
REMARK   98  A    between atoms: _235  and  _238
REMARK   99  A    between atoms: _241  and  _243
REMARK  100  A    between atoms: _243  and  _244
REMARK  101  A    between atoms: _243  and  _246
REMARK  102  A    between atoms: _246  and  _247
REMARK  103  A    between atoms: _252  and  _253
REMARK  104  A    between atoms: _255  and  _257
REMARK  105  A    between atoms: _257  and  _258
REMARK  106  A    between atoms: _257  and  _260
REMARK  107  A    between atoms: _260  and  _261
REMARK  108  A    between atoms: _261  and  _262
REMARK  109  A    between atoms: _262  and  _263
REMARK  110  A    between atoms: _263  and  _264
REMARK  111  A    between atoms: _268  and  _270
REMARK  112  A    between atoms: _270  and  _271
REMARK  113  A    between atoms: _270  and  _273
REMARK  114  A    between atoms: _273  and  _274
REMARK  115  A    between atoms: _279  and  _281
REMARK  116  A    between atoms: _281  and  _282
REMARK  117  A    between atoms: _285  and  _287
REMARK  118  A    between atoms: _287  and  _288
REMARK  119  A    between atoms: _287  and  _290
REMARK  120  A    between atoms: _290  and  _291
REMARK                            x       y       z     vdW  Elec       q    Type
REMARK                         _______ _______ _______ _____ _____    ______ ____
ROOT
ATOM      1  O   HOH     1      -5.824  -5.715 -21.126  0.00  0.00    +0.000 OA
ENDROOT
TORSDOF 0
REMARK  Name = ../refined-set-2016/2ylc/2ylc_pocket.pdb
REMARK  120 active torsions:
REMARK  status: ('A' for Active; 'I' for Inactive)
REMARK    1  A    between atoms: _1  and  _3
REMARK    2  A    between atoms: _3  and  _4
REMARK    3  A    between atoms: _3  and  _6
REMARK    4  A    between atoms: _6  and  _7
REMARK    5  A    between atoms: _10  and  _12
REMARK    6  A    between atoms: _12  and  _13
REMARK    7  A    between atoms: _12  and  _15
REMARK    8  A    between atoms: _15  and  _16
REMARK    9  A    between atoms: _16  and  _17
REMARK   10  A    between atoms: _22  and  _24
REMARK   11  A    between atoms: _24  and  _25
REMARK   12  A    between atoms: _24  and  _27
REMARK   13  A    between atoms: _27  and  _28
REMARK   14  A    between atoms: _34  and  _36
REMARK   15  A    between atoms: _36  and  _37
REMARK   16  A    between atoms: _36  and  _39
REMARK   17  A    between atoms: _42  and  _44
REMARK   18  A    between atoms: _44  and  _45
REMARK   19  A    between atoms: _44  and  _47
REMARK   20  A    between atoms: _47  and  _48
REMARK   21  A    between atoms: _48  and  _49
REMARK   22  A    between atoms: _51  and  _53
REMARK   23  A    between atoms: _53  and  _54
REMARK   24  A    between atoms: _53  and  _56
REMARK   25  A    between atoms: _59  and  _61
REMARK   26  A    between atoms: _61  and  _62
REMARK   27  A    between atoms: _61  and  _64
REMARK   28  A    between atoms: _64  and  _65
REMARK   29  A    between atoms: _70  and  _71
REMARK   30  A    between atoms: _73  and  _75
REMARK   31  A    between atoms: _75  and  _76
REMARK   32  A    between atoms: _75  and  _78
REMARK   33  A    between atoms: _78  and  _79
REMARK   34  A    between atoms: _79  and  _80
REMARK   35  A    between atoms: _80  and  _81
REMARK   36  A    between atoms: _81  and  _82
REMARK   37  A    between atoms: _86  and  _88
REMARK   38  A    between atoms: _88  and  _89
REMARK   39  A    between atoms: _88  and  _91
REMARK   40  A    between atoms: _91  and  _92
REMARK   41  A    between atoms: _97  and  _99
REMARK   42  A    between atoms: _99  and  _100
REMARK   43  A    between atoms: _103  and  _105
REMARK   44  A    between atoms: _105  and  _106
REMARK   45  A    between atoms: _105  and  _108
REMARK   46  A    between atoms: _108  and  _109
REMARK   47  A    between atoms: _115  and  _117
REMARK   48  A    between atoms: _117  and  _118
REMARK   49  A    between atoms: _117  and  _120
REMARK   50  A    between atoms: _120  and  _121
REMARK   51  A    between atoms: _121  and  _122
REMARK   52  A    between atoms: _122  and  _123
REMARK   53  A    between atoms: _123  and  _124
REMARK   54  A    between atoms: _128  and  _130
REMARK   55  A    between atoms: _130  and  _131
REMARK   56  A    between atoms: _130  and  _133
REMARK   57  A    between atoms: _133  and  _134
REMARK   58  A    between atoms: _139  and  _141
REMARK   59  A    between atoms: _141  and  _142
REMARK   60  A    between atoms: _141  and  _144
REMARK   61  A    between atoms: _144  and  _145
REMARK   62  A    between atoms: _150  and  _152
REMARK   63  A    between atoms: _152  and  _153
REMARK   64  A    between atoms: _152  and  _155
REMARK   65  A    between atoms: _155  and  _156
REMARK   66  A    between atoms: _158  and  _160
REMARK   67  A    between atoms: _160  and  _161
REMARK   68  A    between atoms: _160  and  _163
REMARK   69  A    between atoms: _163  and  _164
REMARK   70  A    between atoms: _164  and  _165
REMARK   71  A    between atoms: _170  and  _172
REMARK   72  A    between atoms: _172  and  _173
REMARK   73  A    between atoms: _172  and  _175
REMARK   74  A    between atoms: _175  and  _176
REMARK   75  A    between atoms: _179  and  _181
REMARK   76  A    between atoms: _181  and  _182
REMARK   77  A    between atoms: _181  and  _184
REMARK   78  A    between atoms: _184  and  _185
REMARK   79  A    between atoms: _188  and  _190
REMARK   80  A    between atoms: _190  and  _191
REMARK   81  A    between atoms: _190  and  _193
REMARK   82  A    between atoms: _193  and  _194
REMARK   83  A    between atoms: _200  and  _202
REMARK   84  A    between atoms: _202  and  _203
REMARK   85  A    between atoms: _202  and  _205
REMARK   86  A    between atoms: _205  and  _206
REMARK   87  A    between atoms: _209  and  _211
REMARK   88  A    between atoms: _211  and  _212
REMARK   89  A    between atoms: _211  and  _214
REMARK   90  A    between atoms: _214  and  _215
REMARK   91  A    between atoms: _215  and  _216
REMARK   92  A    between atoms: _221  and  _223
REMARK   93  A    between atoms: _223  and  _224
REMARK   94  A    between atoms: _223  and  _226
REMARK   95  A    between atoms: _226  and  _227
REMARK   96  A    between atoms: _233  and  _235
REMARK   97  A    between atoms: _235  and  _236
REMARK   98  A    between atoms: _235  and  _238
REMARK   99  A    between atoms: _241  and  _243
REMARK  100  A    between atoms: _243  and  _244
REMARK  101  A    between atoms: _243  and  _246
REMARK  102  A    between atoms: _246  and  _247
REMARK  103  A    between atoms: _252  and  _253
REMARK  104  A    between atoms: _255  and  _257
REMARK  105  A    between atoms: _257  and  _258
REMARK  106  A    between atoms: _257  and  _260
REMARK  107  A    between atoms: _260  and  _261
REMARK  108  A    between atoms: _261  and  _262
REMARK  109  A    between atoms: _262  and  _263
REMARK  110  A    between atoms: _263  and  _264
REMARK  111  A    between atoms: _268  and  _270
REMARK  112  A    between atoms: _270  and  _271
REMARK  113  A    between atoms: _270  and  _273
REMARK  114  A    between atoms: _273  and  _274
REMARK  115  A    between atoms: _279  and  _281
REMARK  116  A    between atoms: _281  and  _282
REMARK  117  A    between atoms: _285  and  _287
REMARK  118  A    between atoms: _287  and  _288
REMARK  119  A    between atoms: _287  and  _290
REMARK  120  A    between atoms: _290  and  _291
REMARK                            x       y       z     vdW  Elec       q    Type
REMARK                         _______ _______ _______ _____ _____    ______ ____
ROOT
ATOM      1  O   HOH     1      -8.380  -9.007 -18.476  0.00  0.00    +0.000 OA
ENDROOT
TORSDOF 0
REMARK  Name = ../refined-set-2016/2ylc/2ylc_pocket.pdb
REMARK  120 active torsions:
REMARK  status: ('A' for Active; 'I' for Inactive)
REMARK    1  A    between atoms: _1  and  _3
REMARK    2  A    between atoms: _3  and  _4
REMARK    3  A    between atoms: _3  and  _6
REMARK    4  A    between atoms: _6  and  _7
REMARK    5  A    between atoms: _10  and  _12
REMARK    6  A    between atoms: _12  and  _13
REMARK    7  A    between atoms: _12  and  _15
REMARK    8  A    between atoms: _15  and  _16
REMARK    9  A    between atoms: _16  and  _17
REMARK   10  A    between atoms: _22  and  _24
REMARK   11  A    between atoms: _24  and  _25
REMARK   12  A    between atoms: _24  and  _27
REMARK   13  A    between atoms: _27  and  _28
REMARK   14  A    between atoms: _34  and  _36
REMARK   15  A    between atoms: _36  and  _37
REMARK   16  A    between atoms: _36  and  _39
REMARK   17  A    between atoms: _42  and  _44
REMARK   18  A    between atoms: _44  and  _45
REMARK   19  A    between atoms: _44  and  _47
REMARK   20  A    between atoms: _47  and  _48
REMARK   21  A    between atoms: _48  and  _49
REMARK   22  A    between atoms: _51  and  _53
REMARK   23  A    between atoms: _53  and  _54
REMARK   24  A    between atoms: _53  and  _56
REMARK   25  A    between atoms: _59  and  _61
REMARK   26  A    between atoms: _61  and  _62
REMARK   27  A    between atoms: _61  and  _64
REMARK   28  A    between atoms: _64  and  _65
REMARK   29  A    between atoms: _70  and  _71
REMARK   30  A    between atoms: _73  and  _75
REMARK   31  A    between atoms: _75  and  _76
REMARK   32  A    between atoms: _75  and  _78
REMARK   33  A    between atoms: _78  and  _79
REMARK   34  A    between atoms: _79  and  _80
REMARK   35  A    between atoms: _80  and  _81
REMARK   36  A    between atoms: _81  and  _82
REMARK   37  A    between atoms: _86  and  _88
REMARK   38  A    between atoms: _88  and  _89
REMARK   39  A    between atoms: _88  and  _91
REMARK   40  A    between atoms: _91  and  _92
REMARK   41  A    between atoms: _97  and  _99
REMARK   42  A    between atoms: _99  and  _100
REMARK   43  A    between atoms: _103  and  _105
REMARK   44  A    between atoms: _105  and  _106
REMARK   45  A    between atoms: _105  and  _108
REMARK   46  A    between atoms: _108  and  _109
REMARK   47  A    between atoms: _115  and  _117
REMARK   48  A    between atoms: _117  and  _118
REMARK   49  A    between atoms: _117  and  _120
REMARK   50  A    between atoms: _120  and  _121
REMARK   51  A    between atoms: _121  and  _122
REMARK   52  A    between atoms: _122  and  _123
REMARK   53  A    between atoms: _123  and  _124
REMARK   54  A    between atoms: _128  and  _130
REMARK   55  A    between atoms: _130  and  _131
REMARK   56  A    between atoms: _130  and  _133
REMARK   57  A    between atoms: _133  and  _134
REMARK   58  A    between atoms: _139  and  _141
REMARK   59  A    between atoms: _141  and  _142
REMARK   60  A    between atoms: _141  and  _144
REMARK   61  A    between atoms: _144  and  _145
REMARK   62  A    between atoms: _150  and  _152
REMARK   63  A    between atoms: _152  and  _153
REMARK   64  A    between atoms: _152  and  _155
REMARK   65  A    between atoms: _155  and  _156
REMARK   66  A    between atoms: _158  and  _160
REMARK   67  A    between atoms: _160  and  _161
REMARK   68  A    between atoms: _160  and  _163
REMARK   69  A    between atoms: _163  and  _164
REMARK   70  A    between atoms: _164  and  _165
REMARK   71  A    between atoms: _170  and  _172
REMARK   72  A    between atoms: _172  and  _173
REMARK   73  A    between atoms: _172  and  _175
REMARK   74  A    between atoms: _175  and  _176
REMARK   75  A    between atoms: _179  and  _181
REMARK   76  A    between atoms: _181  and  _182
REMARK   77  A    between atoms: _181  and  _184
REMARK   78  A    between atoms: _184  and  _185
REMARK   79  A    between atoms: _188  and  _190
REMARK   80  A    between atoms: _190  and  _191
REMARK   81  A    between atoms: _190  and  _193
REMARK   82  A    between atoms: _193  and  _194
REMARK   83  A    between atoms: _200  and  _202
REMARK   84  A    between atoms: _202  and  _203
REMARK   85  A    between atoms: _202  and  _205
REMARK   86  A    between atoms: _205  and  _206
REMARK   87  A    between atoms: _209  and  _211
REMARK   88  A    between atoms: _211  and  _212
REMARK   89  A    between atoms: _211  and  _214
REMARK   90  A    between atoms: _214  and  _215
REMARK   91  A    between atoms: _215  and  _216
REMARK   92  A    between atoms: _221  and  _223
REMARK   93  A    between atoms: _223  and  _224
REMARK   94  A    between atoms: _223  and  _226
REMARK   95  A    between atoms: _226  and  _227
REMARK   96  A    between atoms: _233  and  _235
REMARK   97  A    between atoms: _235  and  _236
REMARK   98  A    between atoms: _235  and  _238
REMARK   99  A    between atoms: _241  and  _243
REMARK  100  A    between atoms: _243  and  _244
REMARK  101  A    between atoms: _243  and  _246
REMARK  102  A    between atoms: _246  and  _247
REMARK  103  A    between atoms: _252  and  _253
REMARK  104  A    between atoms: _255  and  _257
REMARK  105  A    between atoms: _257  and  _258
REMARK  106  A    between atoms: _257  and  _260
REMARK  107  A    between atoms: _260  and  _261
REMARK  108  A    between atoms: _261  and  _262
REMARK  109  A    between atoms: _262  and  _263
REMARK  110  A    between atoms: _263  and  _264
REMARK  111  A    between atoms: _268  and  _270
REMARK  112  A    between atoms: _270  and  _271
REMARK  113  A    between atoms: _270  and  _273
REMARK  114  A    between atoms: _273  and  _274
REMARK  115  A    between atoms: _279  and  _281
REMARK  116  A    between atoms: _281  and  _282
REMARK  117  A    between atoms: _285  and  _287
REMARK  118  A    between atoms: _287  and  _288
REMARK  119  A    between atoms: _287  and  _290
REMARK  120  A    between atoms: _290  and  _291
REMARK                            x       y       z     vdW  Elec       q    Type
REMARK                         _______ _______ _______ _____ _____    ______ ____
ROOT
ATOM      1  O   HOH     1      -5.109  -7.275 -10.151  0.00  0.00    +0.000 OA
ENDROOT
TORSDOF 0
REMARK  Name = ../refined-set-2016/2ylc/2ylc_pocket.pdb
REMARK  120 active torsions:
REMARK  status: ('A' for Active; 'I' for Inactive)
REMARK    1  A    between atoms: _1  and  _3
REMARK    2  A    between atoms: _3  and  _4
REMARK    3  A    between atoms: _3  and  _6
REMARK    4  A    between atoms: _6  and  _7
REMARK    5  A    between atoms: _10  and  _12
REMARK    6  A    between atoms: _12  and  _13
REMARK    7  A    between atoms: _12  and  _15
REMARK    8  A    between atoms: _15  and  _16
REMARK    9  A    between atoms: _16  and  _17
REMARK   10  A    between atoms: _22  and  _24
REMARK   11  A    between atoms: _24  and  _25
REMARK   12  A    between atoms: _24  and  _27
REMARK   13  A    between atoms: _27  and  _28
REMARK   14  A    between atoms: _34  and  _36
REMARK   15  A    between atoms: _36  and  _37
REMARK   16  A    between atoms: _36  and  _39
REMARK   17  A    between atoms: _42  and  _44
REMARK   18  A    between atoms: _44  and  _45
REMARK   19  A    between atoms: _44  and  _47
REMARK   20  A    between atoms: _47  and  _48
REMARK   21  A    between atoms: _48  and  _49
REMARK   22  A    between atoms: _51  and  _53
REMARK   23  A    between atoms: _53  and  _54
REMARK   24  A    between atoms: _53  and  _56
REMARK   25  A    between atoms: _59  and  _61
REMARK   26  A    between atoms: _61  and  _62
REMARK   27  A    between atoms: _61  and  _64
REMARK   28  A    between atoms: _64  and  _65
REMARK   29  A    between atoms: _70  and  _71
REMARK   30  A    between atoms: _73  and  _75
REMARK   31  A    between atoms: _75  and  _76
REMARK   32  A    between atoms: _75  and  _78
REMARK   33  A    between atoms: _78  and  _79
REMARK   34  A    between atoms: _79  and  _80
REMARK   35  A    between atoms: _80  and  _81
REMARK   36  A    between atoms: _81  and  _82
REMARK   37  A    between atoms: _86  and  _88
REMARK   38  A    between atoms: _88  and  _89
REMARK   39  A    between atoms: _88  and  _91
REMARK   40  A    between atoms: _91  and  _92
REMARK   41  A    between atoms: _97  and  _99
REMARK   42  A    between atoms: _99  and  _100
REMARK   43  A    between atoms: _103  and  _105
REMARK   44  A    between atoms: _105  and  _106
REMARK   45  A    between atoms: _105  and  _108
REMARK   46  A    between atoms: _108  and  _109
REMARK   47  A    between atoms: _115  and  _117
REMARK   48  A    between atoms: _117  and  _118
REMARK   49  A    between atoms: _117  and  _120
REMARK   50  A    between atoms: _120  and  _121
REMARK   51  A    between atoms: _121  and  _122
REMARK   52  A    between atoms: _122  and  _123
REMARK   53  A    between atoms: _123  and  _124
REMARK   54  A    between atoms: _128  and  _130
REMARK   55  A    between atoms: _130  and  _131
REMARK   56  A    between atoms: _130  and  _133
REMARK   57  A    between atoms: _133  and  _134
REMARK   58  A    between atoms: _139  and  _141
REMARK   59  A    between atoms: _141  and  _142
REMARK   60  A    between atoms: _141  and  _144
REMARK   61  A    between atoms: _144  and  _145
REMARK   62  A    between atoms: _150  and  _152
REMARK   63  A    between atoms: _152  and  _153
REMARK   64  A    between atoms: _152  and  _155
REMARK   65  A    between atoms: _155  and  _156
REMARK   66  A    between atoms: _158  and  _160
REMARK   67  A    between atoms: _160  and  _161
REMARK   68  A    between atoms: _160  and  _163
REMARK   69  A    between atoms: _163  and  _164
REMARK   70  A    between atoms: _164  and  _165
REMARK   71  A    between atoms: _170  and  _172
REMARK   72  A    between atoms: _172  and  _173
REMARK   73  A    between atoms: _172  and  _175
REMARK   74  A    between atoms: _175  and  _176
REMARK   75  A    between atoms: _179  and  _181
REMARK   76  A    between atoms: _181  and  _182
REMARK   77  A    between atoms: _181  and  _184
REMARK   78  A    between atoms: _184  and  _185
REMARK   79  A    between atoms: _188  and  _190
REMARK   80  A    between atoms: _190  and  _191
REMARK   81  A    between atoms: _190  and  _193
REMARK   82  A    between atoms: _193  and  _194
REMARK   83  A    between atoms: _200  and  _202
REMARK   84  A    between atoms: _202  and  _203
REMARK   85  A    between atoms: _202  and  _205
REMARK   86  A    between atoms: _205  and  _206
REMARK   87  A    between atoms: _209  and  _211
REMARK   88  A    between atoms: _211  and  _212
REMARK   89  A    between atoms: _211  and  _214
REMARK   90  A    between atoms: _214  and  _215
REMARK   91  A    between atoms: _215  and  _216
REMARK   92  A    between atoms: _221  and  _223
REMARK   93  A    between atoms: _223  and  _224
REMARK   94  A    between atoms: _223  and  _226
REMARK   95  A    between atoms: _226  and  _227
REMARK   96  A    between atoms: _233  and  _235
REMARK   97  A    between atoms: _235  and  _236
REMARK   98  A    between atoms: _235  and  _238
REMARK   99  A    between atoms: _241  and  _243
REMARK  100  A    between atoms: _243  and  _244
REMARK  101  A    between atoms: _243  and  _246
REMARK  102  A    between atoms: _246  and  _247
REMARK  103  A    between atoms: _252  and  _253
REMARK  104  A    between atoms: _255  and  _257
REMARK  105  A    between atoms: _257  and  _258
REMARK  106  A    between atoms: _257  and  _260
REMARK  107  A    between atoms: _260  and  _261
REMARK  108  A    between atoms: _261  and  _262
REMARK  109  A    between atoms: _262  and  _263
REMARK  110  A    between atoms: _263  and  _264
REMARK  111  A    between atoms: _268  and  _270
REMARK  112  A    between atoms: _270  and  _271
REMARK  113  A    between atoms: _270  and  _273
REMARK  114  A    between atoms: _273  and  _274
REMARK  115  A    between atoms: _279  and  _281
REMARK  116  A    between atoms: _281  and  _282
REMARK  117  A    between atoms: _285  and  _287
REMARK  118  A    between atoms: _287  and  _288
REMARK  119  A    between atoms: _287  and  _290
REMARK  120  A    between atoms: _290  and  _291
REMARK                            x       y       z     vdW  Elec       q    Type
REMARK                         _______ _______ _______ _____ _____    ______ ____
ROOT
ATOM      1  O   HOH     1      -0.005  -3.873  -5.678  0.00  0.00    +0.000 OA
ENDROOT
TORSDOF 0
REMARK  Name = ../refined-set-2016/2ylc/2ylc_pocket.pdb
REMARK  120 active torsions:
REMARK  status: ('A' for Active; 'I' for Inactive)
REMARK    1  A    between atoms: _1  and  _3
REMARK    2  A    between atoms: _3  and  _4
REMARK    3  A    between atoms: _3  and  _6
REMARK    4  A    between atoms: _6  and  _7
REMARK    5  A    between atoms: _10  and  _12
REMARK    6  A    between atoms: _12  and  _13
REMARK    7  A    between atoms: _12  and  _15
REMARK    8  A    between atoms: _15  and  _16
REMARK    9  A    between atoms: _16  and  _17
REMARK   10  A    between atoms: _22  and  _24
REMARK   11  A    between atoms: _24  and  _25
REMARK   12  A    between atoms: _24  and  _27
REMARK   13  A    between atoms: _27  and  _28
REMARK   14  A    between atoms: _34  and  _36
REMARK   15  A    between atoms: _36  and  _37
REMARK   16  A    between atoms: _36  and  _39
REMARK   17  A    between atoms: _42  and  _44
REMARK   18  A    between atoms: _44  and  _45
REMARK   19  A    between atoms: _44  and  _47
REMARK   20  A    between atoms: _47  and  _48
REMARK   21  A    between atoms: _48  and  _49
REMARK   22  A    between atoms: _51  and  _53
REMARK   23  A    between atoms: _53  and  _54
REMARK   24  A    between atoms: _53  and  _56
REMARK   25  A    between atoms: _59  and  _61
REMARK   26  A    between atoms: _61  and  _62
REMARK   27  A    between atoms: _61  and  _64
REMARK   28  A    between atoms: _64  and  _65
REMARK   29  A    between atoms: _70  and  _71
REMARK   30  A    between atoms: _73  and  _75
REMARK   31  A    between atoms: _75  and  _76
REMARK   32  A    between atoms: _75  and  _78
REMARK   33  A    between atoms: _78  and  _79
REMARK   34  A    between atoms: _79  and  _80
REMARK   35  A    between atoms: _80  and  _81
REMARK   36  A    between atoms: _81  and  _82
REMARK   37  A    between atoms: _86  and  _88
REMARK   38  A    between atoms: _88  and  _89
REMARK   39  A    between atoms: _88  and  _91
REMARK   40  A    between atoms: _91  and  _92
REMARK   41  A    between atoms: _97  and  _99
REMARK   42  A    between atoms: _99  and  _100
REMARK   43  A    between atoms: _103  and  _105
REMARK   44  A    between atoms: _105  and  _106
REMARK   45  A    between atoms: _105  and  _108
REMARK   46  A    between atoms: _108  and  _109
REMARK   47  A    between atoms: _115  and  _117
REMARK   48  A    between atoms: _117  and  _118
REMARK   49  A    between atoms: _117  and  _120
REMARK   50  A    between atoms: _120  and  _121
REMARK   51  A    between atoms: _121  and  _122
REMARK   52  A    between atoms: _122  and  _123
REMARK   53  A    between atoms: _123  and  _124
REMARK   54  A    between atoms: _128  and  _130
REMARK   55  A    between atoms: _130  and  _131
REMARK   56  A    between atoms: _130  and  _133
REMARK   57  A    between atoms: _133  and  _134
REMARK   58  A    between atoms: _139  and  _141
REMARK   59  A    between atoms: _141  and  _142
REMARK   60  A    between atoms: _141  and  _144
REMARK   61  A    between atoms: _144  and  _145
REMARK   62  A    between atoms: _150  and  _152
REMARK   63  A    between atoms: _152  and  _153
REMARK   64  A    between atoms: _152  and  _155
REMARK   65  A    between atoms: _155  and  _156
REMARK   66  A    between atoms: _158  and  _160
REMARK   67  A    between atoms: _160  and  _161
REMARK   68  A    between atoms: _160  and  _163
REMARK   69  A    between atoms: _163  and  _164
REMARK   70  A    between atoms: _164  and  _165
REMARK   71  A    between atoms: _170  and  _172
REMARK   72  A    between atoms: _172  and  _173
REMARK   73  A    between atoms: _172  and  _175
REMARK   74  A    between atoms: _175  and  _176
REMARK   75  A    between atoms: _179  and  _181
REMARK   76  A    between atoms: _181  and  _182
REMARK   77  A    between atoms: _181  and  _184
REMARK   78  A    between atoms: _184  and  _185
REMARK   79  A    between atoms: _188  and  _190
REMARK   80  A    between atoms: _190  and  _191
REMARK   81  A    between atoms: _190  and  _193
REMARK   82  A    between atoms: _193  and  _194
REMARK   83  A    between atoms: _200  and  _202
REMARK   84  A    between atoms: _202  and  _203
REMARK   85  A    between atoms: _202  and  _205
REMARK   86  A    between atoms: _205  and  _206
REMARK   87  A    between atoms: _209  and  _211
REMARK   88  A    between atoms: _211  and  _212
REMARK   89  A    between atoms: _211  and  _214
REMARK   90  A    between atoms: _214  and  _215
REMARK   91  A    between atoms: _215  and  _216
REMARK   92  A    between atoms: _221  and  _223
REMARK   93  A    between atoms: _223  and  _224
REMARK   94  A    between atoms: _223  and  _226
REMARK   95  A    between atoms: _226  and  _227
REMARK   96  A    between atoms: _233  and  _235
REMARK   97  A    between atoms: _235  and  _236
REMARK   98  A    between atoms: _235  and  _238
REMARK   99  A    between atoms: _241  and  _243
REMARK  100  A    between atoms: _243  and  _244
REMARK  101  A    between atoms: _243  and  _246
REMARK  102  A    between atoms: _246  and  _247
REMARK  103  A    between atoms: _252  and  _253
REMARK  104  A    between atoms: _255  and  _257
REMARK  105  A    between atoms: _257  and  _258
REMARK  106  A    between atoms: _257  and  _260
REMARK  107  A    between atoms: _260  and  _261
REMARK  108  A    between atoms: _261  and  _262
REMARK  109  A    between atoms: _262  and  _263
REMARK  110  A    between atoms: _263  and  _264
REMARK  111  A    between atoms: _268  and  _270
REMARK  112  A    between atoms: _270  and  _271
REMARK  113  A    between atoms: _270  and  _273
REMARK  114  A    between atoms: _273  and  _274
REMARK  115  A    between atoms: _279  and  _281
REMARK  116  A    between atoms: _281  and  _282
REMARK  117  A    between atoms: _285  and  _287
REMARK  118  A    between atoms: _287  and  _288
REMARK  119  A    between atoms: _287  and  _290
REMARK  120  A    between atoms: _290  and  _291
REMARK                            x       y       z     vdW  Elec       q    Type
REMARK                         _______ _______ _______ _____ _____    ______ ____
ROOT
ATOM      1  O   HOH     1      -2.646  -3.688  -3.354  0.00  0.00    +0.000 OA
ENDROOT
TORSDOF 0
REMARK  Name = ../refined-set-2016/2ylc/2ylc_pocket.pdb
REMARK  120 active torsions:
REMARK  status: ('A' for Active; 'I' for Inactive)
REMARK    1  A    between atoms: _1  and  _3
REMARK    2  A    between atoms: _3  and  _4
REMARK    3  A    between atoms: _3  and  _6
REMARK    4  A    between atoms: _6  and  _7
REMARK    5  A    between atoms: _10  and  _12
REMARK    6  A    between atoms: _12  and  _13
REMARK    7  A    between atoms: _12  and  _15
REMARK    8  A    between atoms: _15  and  _16
REMARK    9  A    between atoms: _16  and  _17
REMARK   10  A    between atoms: _22  and  _24
REMARK   11  A    between atoms: _24  and  _25
REMARK   12  A    between atoms: _24  and  _27
REMARK   13  A    between atoms: _27  and  _28
REMARK   14  A    between atoms: _34  and  _36
REMARK   15  A    between atoms: _36  and  _37
REMARK   16  A    between atoms: _36  and  _39
REMARK   17  A    between atoms: _42  and  _44
REMARK   18  A    between atoms: _44  and  _45
REMARK   19  A    between atoms: _44  and  _47
REMARK   20  A    between atoms: _47  and  _48
REMARK   21  A    between atoms: _48  and  _49
REMARK   22  A    between atoms: _51  and  _53
REMARK   23  A    between atoms: _53  and  _54
REMARK   24  A    between atoms: _53  and  _56
REMARK   25  A    between atoms: _59  and  _61
REMARK   26  A    between atoms: _61  and  _62
REMARK   27  A    between atoms: _61  and  _64
REMARK   28  A    between atoms: _64  and  _65
REMARK   29  A    between atoms: _70  and  _71
REMARK   30  A    between atoms: _73  and  _75
REMARK   31  A    between atoms: _75  and  _76
REMARK   32  A    between atoms: _75  and  _78
REMARK   33  A    between atoms: _78  and  _79
REMARK   34  A    between atoms: _79  and  _80
REMARK   35  A    between atoms: _80  and  _81
REMARK   36  A    between atoms: _81  and  _82
REMARK   37  A    between atoms: _86  and  _88
REMARK   38  A    between atoms: _88  and  _89
REMARK   39  A    between atoms: _88  and  _91
REMARK   40  A    between atoms: _91  and  _92
REMARK   41  A    between atoms: _97  and  _99
REMARK   42  A    between atoms: _99  and  _100
REMARK   43  A    between atoms: _103  and  _105
REMARK   44  A    between atoms: _105  and  _106
REMARK   45  A    between atoms: _105  and  _108
REMARK   46  A    between atoms: _108  and  _109
REMARK   47  A    between atoms: _115  and  _117
REMARK   48  A    between atoms: _117  and  _118
REMARK   49  A    between atoms: _117  and  _120
REMARK   50  A    between atoms: _120  and  _121
REMARK   51  A    between atoms: _121  and  _122
REMARK   52  A    between atoms: _122  and  _123
REMARK   53  A    between atoms: _123  and  _124
REMARK   54  A    between atoms: _128  and  _130
REMARK   55  A    between atoms: _130  and  _131
REMARK   56  A    between atoms: _130  and  _133
REMARK   57  A    between atoms: _133  and  _134
REMARK   58  A    between atoms: _139  and  _141
REMARK   59  A    between atoms: _141  and  _142
REMARK   60  A    between atoms: _141  and  _144
REMARK   61  A    between atoms: _144  and  _145
REMARK   62  A    between atoms: _150  and  _152
REMARK   63  A    between atoms: _152  and  _153
REMARK   64  A    between atoms: _152  and  _155
REMARK   65  A    between atoms: _155  and  _156
REMARK   66  A    between atoms: _158  and  _160
REMARK   67  A    between atoms: _160  and  _161
REMARK   68  A    between atoms: _160  and  _163
REMARK   69  A    between atoms: _163  and  _164
REMARK   70  A    between atoms: _164  and  _165
REMARK   71  A    between atoms: _170  and  _172
REMARK   72  A    between atoms: _172  and  _173
REMARK   73  A    between atoms: _172  and  _175
REMARK   74  A    between atoms: _175  and  _176
REMARK   75  A    between atoms: _179  and  _181
REMARK   76  A    between atoms: _181  and  _182
REMARK   77  A    between atoms: _181  and  _184
REMARK   78  A    between atoms: _184  and  _185
REMARK   79  A    between atoms: _188  and  _190
REMARK   80  A    between atoms: _190  and  _191
REMARK   81  A    between atoms: _190  and  _193
REMARK   82  A    between atoms: _193  and  _194
REMARK   83  A    between atoms: _200  and  _202
REMARK   84  A    between atoms: _202  and  _203
REMARK   85  A    between atoms: _202  and  _205
REMARK   86  A    between atoms: _205  and  _206
REMARK   87  A    between atoms: _209  and  _211
REMARK   88  A    between atoms: _211  and  _212
REMARK   89  A    between atoms: _211  and  _214
REMARK   90  A    between atoms: _214  and  _215
REMARK   91  A    between atoms: _215  and  _216
REMARK   92  A    between atoms: _221  and  _223
REMARK   93  A    between atoms: _223  and  _224
REMARK   94  A    between atoms: _223  and  _226
REMARK   95  A    between atoms: _226  and  _227
REMARK   96  A    between atoms: _233  and  _235
REMARK   97  A    between atoms: _235  and  _236
REMARK   98  A    between atoms: _235  and  _238
REMARK   99  A    between atoms: _241  and  _243
REMARK  100  A    between atoms: _243  and  _244
REMARK  101  A    between atoms: _243  and  _246
REMARK  102  A    between atoms: _246  and  _247
REMARK  103  A    between atoms: _252  and  _253
REMARK  104  A    between atoms: _255  and  _257
REMARK  105  A    between atoms: _257  and  _258
REMARK  106  A    between atoms: _257  and  _260
REMARK  107  A    between atoms: _260  and  _261
REMARK  108  A    between atoms: _261  and  _262
REMARK  109  A    between atoms: _262  and  _263
REMARK  110  A    between atoms: _263  and  _264
REMARK  111  A    between atoms: _268  and  _270
REMARK  112  A    between atoms: _270  and  _271
REMARK  113  A    between atoms: _270  and  _273
REMARK  114  A    between atoms: _273  and  _274
REMARK  115  A    between atoms: _279  and  _281
REMARK  116  A    between atoms: _281  and  _282
REMARK  117  A    between atoms: _285  and  _287
REMARK  118  A    between atoms: _287  and  _288
REMARK  119  A    between atoms: _287  and  _290
REMARK  120  A    between atoms: _290  and  _291
REMARK                            x       y       z     vdW  Elec       q    Type
REMARK                         _______ _______ _______ _____ _____    ______ ____
ROOT
ATOM      1  O   HOH     1      -3.301   3.193 -15.073  0.00  0.00    +0.000 OA
ENDROOT
TORSDOF 0
REMARK  Name = ../refined-set-2016/2ylc/2ylc_pocket.pdb
REMARK  120 active torsions:
REMARK  status: ('A' for Active; 'I' for Inactive)
REMARK    1  A    between atoms: _1  and  _3
REMARK    2  A    between atoms: _3  and  _4
REMARK    3  A    between atoms: _3  and  _6
REMARK    4  A    between atoms: _6  and  _7
REMARK    5  A    between atoms: _10  and  _12
REMARK    6  A    between atoms: _12  and  _13
REMARK    7  A    between atoms: _12  and  _15
REMARK    8  A    between atoms: _15  and  _16
REMARK    9  A    between atoms: _16  and  _17
REMARK   10  A    between atoms: _22  and  _24
REMARK   11  A    between atoms: _24  and  _25
REMARK   12  A    between atoms: _24  and  _27
REMARK   13  A    between atoms: _27  and  _28
REMARK   14  A    between atoms: _34  and  _36
REMARK   15  A    between atoms: _36  and  _37
REMARK   16  A    between atoms: _36  and  _39
REMARK   17  A    between atoms: _42  and  _44
REMARK   18  A    between atoms: _44  and  _45
REMARK   19  A    between atoms: _44  and  _47
REMARK   20  A    between atoms: _47  and  _48
REMARK   21  A    between atoms: _48  and  _49
REMARK   22  A    between atoms: _51  and  _53
REMARK   23  A    between atoms: _53  and  _54
REMARK   24  A    between atoms: _53  and  _56
REMARK   25  A    between atoms: _59  and  _61
REMARK   26  A    between atoms: _61  and  _62
REMARK   27  A    between atoms: _61  and  _64
REMARK   28  A    between atoms: _64  and  _65
REMARK   29  A    between atoms: _70  and  _71
REMARK   30  A    between atoms: _73  and  _75
REMARK   31  A    between atoms: _75  and  _76
REMARK   32  A    between atoms: _75  and  _78
REMARK   33  A    between atoms: _78  and  _79
REMARK   34  A    between atoms: _79  and  _80
REMARK   35  A    between atoms: _80  and  _81
REMARK   36  A    between atoms: _81  and  _82
REMARK   37  A    between atoms: _86  and  _88
REMARK   38  A    between atoms: _88  and  _89
REMARK   39  A    between atoms: _88  and  _91
REMARK   40  A    between atoms: _91  and  _92
REMARK   41  A    between atoms: _97  and  _99
REMARK   42  A    between atoms: _99  and  _100
REMARK   43  A    between atoms: _103  and  _105
REMARK   44  A    between atoms: _105  and  _106
REMARK   45  A    between atoms: _105  and  _108
REMARK   46  A    between atoms: _108  and  _109
REMARK   47  A    between atoms: _115  and  _117
REMARK   48  A    between atoms: _117  and  _118
REMARK   49  A    between atoms: _117  and  _120
REMARK   50  A    between atoms: _120  and  _121
REMARK   51  A    between atoms: _121  and  _122
REMARK   52  A    between atoms: _122  and  _123
REMARK   53  A    between atoms: _123  and  _124
REMARK   54  A    between atoms: _128  and  _130
REMARK   55  A    between atoms: _130  and  _131
REMARK   56  A    between atoms: _130  and  _133
REMARK   57  A    between atoms: _133  and  _134
REMARK   58  A    between atoms: _139  and  _141
REMARK   59  A    between atoms: _141  and  _142
REMARK   60  A    between atoms: _141  and  _144
REMARK   61  A    between atoms: _144  and  _145
REMARK   62  A    between atoms: _150  and  _152
REMARK   63  A    between atoms: _152  and  _153
REMARK   64  A    between atoms: _152  and  _155
REMARK   65  A    between atoms: _155  and  _156
REMARK   66  A    between atoms: _158  and  _160
REMARK   67  A    between atoms: _160  and  _161
REMARK   68  A    between atoms: _160  and  _163
REMARK   69  A    between atoms: _163  and  _164
REMARK   70  A    between atoms: _164  and  _165
REMARK   71  A    between atoms: _170  and  _172
REMARK   72  A    between atoms: _172  and  _173
REMARK   73  A    between atoms: _172  and  _175
REMARK   74  A    between atoms: _175  and  _176
REMARK   75  A    between atoms: _179  and  _181
REMARK   76  A    between atoms: _181  and  _182
REMARK   77  A    between atoms: _181  and  _184
REMARK   78  A    between atoms: _184  and  _185
REMARK   79  A    between atoms: _188  and  _190
REMARK   80  A    between atoms: _190  and  _191
REMARK   81  A    between atoms: _190  and  _193
REMARK   82  A    between atoms: _193  and  _194
REMARK   83  A    between atoms: _200  and  _202
REMARK   84  A    between atoms: _202  and  _203
REMARK   85  A    between atoms: _202  and  _205
REMARK   86  A    between atoms: _205  and  _206
REMARK   87  A    between atoms: _209  and  _211
REMARK   88  A    between atoms: _211  and  _212
REMARK   89  A    between atoms: _211  and  _214
REMARK   90  A    between atoms: _214  and  _215
REMARK   91  A    between atoms: _215  and  _216
REMARK   92  A    between atoms: _221  and  _223
REMARK   93  A    between atoms: _223  and  _224
REMARK   94  A    between atoms: _223  and  _226
REMARK   95  A    between atoms: _226  and  _227
REMARK   96  A    between atoms: _233  and  _235
REMARK   97  A    between atoms: _235  and  _236
REMARK   98  A    between atoms: _235  and  _238
REMARK   99  A    between atoms: _241  and  _243
REMARK  100  A    between atoms: _243  and  _244
REMARK  101  A    between atoms: _243  and  _246
REMARK  102  A    between atoms: _246  and  _247
REMARK  103  A    between atoms: _252  and  _253
REMARK  104  A    between atoms: _255  and  _257
REMARK  105  A    between atoms: _257  and  _258
REMARK  106  A    between atoms: _257  and  _260
REMARK  107  A    between atoms: _260  and  _261
REMARK  108  A    between atoms: _261  and  _262
REMARK  109  A    between atoms: _262  and  _263
REMARK  110  A    between atoms: _263  and  _264
REMARK  111  A    between atoms: _268  and  _270
REMARK  112  A    between atoms: _270  and  _271
REMARK  113  A    between atoms: _270  and  _273
REMARK  114  A    between atoms: _273  and  _274
REMARK  115  A    between atoms: _279  and  _281
REMARK  116  A    between atoms: _281  and  _282
REMARK  117  A    between atoms: _285  and  _287
REMARK  118  A    between atoms: _287  and  _288
REMARK  119  A    between atoms: _287  and  _290
REMARK  120  A    between atoms: _290  and  _291
REMARK                            x       y       z     vdW  Elec       q    Type
REMARK                         _______ _______ _______ _____ _____    ______ ____
ROOT
ATOM      1  O   HOH     1      -3.115   2.149  -8.619  0.00  0.00    +0.000 OA
ENDROOT
TORSDOF 0
