REMARK  Name = ../refined-set-2016/1q84/1q84_pocket.pdb
REMARK  273 active torsions:
REMARK  status: ('A' for Active; 'I' for Inactive)
REMARK    1  A    between atoms: _1  and  _3
REMARK    2  A    between atoms: _3  and  _4
REMARK    3  A    between atoms: _3  and  _6
REMARK    4  A    between atoms: _6  and  _7
REMARK    5  A    between atoms: _7  and  _8
REMARK    6  A    between atoms: _13  and  _15
REMARK    7  A    between atoms: _15  and  _16
REMARK    8  A    between atoms: _15  and  _18
REMARK    9  A    between atoms: _18  and  _19
REMARK   10  A    between atoms: _24  and  _25
REMARK   11  A    between atoms: _27  and  _29
REMARK   12  A    between atoms: _29  and  _30
REMARK   13  A    between atoms: _29  and  _32
REMARK   14  A    between atoms: _35  and  _37
REMARK   15  A    between atoms: _37  and  _38
REMARK   16  A    between atoms: _37  and  _40
REMARK   17  A    between atoms: _40  and  _41
REMARK   18  A    between atoms: _44  and  _46
REMARK   19  A    between atoms: _46  and  _47
REMARK   20  A    between atoms: _46  and  _49
REMARK   21  A    between atoms: _49  and  _50
REMARK   22  A    between atoms: _53  and  _55
REMARK   23  A    between atoms: _55  and  _56
REMARK   24  A    between atoms: _55  and  _58
REMARK   25  A    between atoms: _58  and  _59
REMARK   26  A    between atoms: _62  and  _64
REMARK   27  A    between atoms: _64  and  _65
REMARK   28  A    between atoms: _64  and  _67
REMARK   29  A    between atoms: _67  and  _68
REMARK   30  A    between atoms: _73  and  _74
REMARK   31  A    between atoms: _76  and  _78
REMARK   32  A    between atoms: _78  and  _79
REMARK   33  A    between atoms: _78  and  _81
REMARK   34  A    between atoms: _81  and  _82
REMARK   35  A    between atoms: _88  and  _90
REMARK   36  A    between atoms: _90  and  _91
REMARK   37  A    between atoms: _90  and  _93
REMARK   38  A    between atoms: _93  and  _94
REMARK   39  A    between atoms: _94  and  _95
REMARK   40  A    between atoms: _98  and  _100
REMARK   41  A    between atoms: _100  and  _101
REMARK   42  A    between atoms: _103  and  _105
REMARK   43  A    between atoms: _105  and  _106
REMARK   44  A    between atoms: _105  and  _108
REMARK   45  A    between atoms: _108  and  _109
REMARK   46  A    between atoms: _112  and  _114
REMARK   47  A    between atoms: _114  and  _115
REMARK   48  A    between atoms: _114  and  _117
REMARK   49  A    between atoms: _117  and  _118
REMARK   50  A    between atoms: _118  and  _119
REMARK   51  A    between atoms: _122  and  _124
REMARK   52  A    between atoms: _124  and  _125
REMARK   53  A    between atoms: _124  and  _127
REMARK   54  A    between atoms: _127  and  _128
REMARK   55  A    between atoms: _128  and  _129
REMARK   56  A    between atoms: _131  and  _133
REMARK   57  A    between atoms: _133  and  _134
REMARK   58  A    between atoms: _133  and  _136
REMARK   59  A    between atoms: _136  and  _137
REMARK   60  A    between atoms: _147  and  _149
REMARK   61  A    between atoms: _149  and  _150
REMARK   62  A    between atoms: _149  and  _152
REMARK   63  A    between atoms: _152  and  _153
REMARK   64  A    between atoms: _158  and  _160
REMARK   65  A    between atoms: _160  and  _161
REMARK   66  A    between atoms: _160  and  _163
REMARK   67  A    between atoms: _163  and  _164
REMARK   68  A    between atoms: _174  and  _176
REMARK   69  A    between atoms: _176  and  _177
REMARK   70  A    between atoms: _176  and  _179
REMARK   71  A    between atoms: _179  and  _180
REMARK   72  A    between atoms: _185  and  _186
REMARK   73  A    between atoms: _188  and  _190
REMARK   74  A    between atoms: _190  and  _191
REMARK   75  A    between atoms: _193  and  _195
REMARK   76  A    between atoms: _195  and  _196
REMARK   77  A    between atoms: _198  and  _200
REMARK   78  A    between atoms: _200  and  _201
REMARK   79  A    between atoms: _203  and  _205
REMARK   80  A    between atoms: _205  and  _206
REMARK   81  A    between atoms: _205  and  _208
REMARK   82  A    between atoms: _208  and  _209
REMARK   83  A    between atoms: _215  and  _217
REMARK   84  A    between atoms: _217  and  _218
REMARK   85  A    between atoms: _217  and  _220
REMARK   86  A    between atoms: _220  and  _221
REMARK   87  A    between atoms: _226  and  _227
REMARK   88  A    between atoms: _229  and  _231
REMARK   89  A    between atoms: _231  and  _232
REMARK   90  A    between atoms: _231  and  _234
REMARK   91  A    between atoms: _234  and  _235
REMARK   92  A    between atoms: _237  and  _239
REMARK   93  A    between atoms: _239  and  _240
REMARK   94  A    between atoms: _242  and  _244
REMARK   95  A    between atoms: _244  and  _245
REMARK   96  A    between atoms: _248  and  _250
REMARK   97  A    between atoms: _250  and  _251
REMARK   98  A    between atoms: _250  and  _253
REMARK   99  A    between atoms: _253  and  _254
REMARK  100  A    between atoms: _257  and  _259
REMARK  101  A    between atoms: _259  and  _260
REMARK  102  A    between atoms: _259  and  _262
REMARK  103  A    between atoms: _265  and  _267
REMARK  104  A    between atoms: _267  and  _268
REMARK  105  A    between atoms: _267  and  _270
REMARK  106  A    between atoms: _270  and  _271
REMARK  107  A    between atoms: _276  and  _277
REMARK  108  A    between atoms: _279  and  _281
REMARK  109  A    between atoms: _281  and  _282
REMARK  110  A    between atoms: _281  and  _284
REMARK  111  A    between atoms: _284  and  _285
REMARK  112  A    between atoms: _290  and  _291
REMARK  113  A    between atoms: _293  and  _295
REMARK  114  A    between atoms: _295  and  _296
REMARK  115  A    between atoms: _295  and  _298
REMARK  116  A    between atoms: _298  and  _299
REMARK  117  A    between atoms: _299  and  _300
REMARK  118  A    between atoms: _303  and  _305
REMARK  119  A    between atoms: _305  and  _306
REMARK  120  A    between atoms: _305  and  _308
REMARK  121  A    between atoms: _308  and  _309
REMARK  122  A    between atoms: _311  and  _313
REMARK  123  A    between atoms: _313  and  _314
REMARK  124  A    between atoms: _317  and  _319
REMARK  125  A    between atoms: _319  and  _320
REMARK  126  A    between atoms: _322  and  _324
REMARK  127  A    between atoms: _324  and  _325
REMARK  128  A    between atoms: _328  and  _330
REMARK  129  A    between atoms: _330  and  _331
REMARK  130  A    between atoms: _330  and  _333
REMARK  131  A    between atoms: _333  and  _334
REMARK  132  A    between atoms: _336  and  _338
REMARK  133  A    between atoms: _338  and  _339
REMARK  134  A    between atoms: _338  and  _341
REMARK  135  A    between atoms: _344  and  _346
REMARK  136  A    between atoms: _346  and  _347
REMARK  137  A    between atoms: _346  and  _349
REMARK  138  A    between atoms: _349  and  _350
REMARK  139  A    between atoms: _353  and  _355
REMARK  140  A    between atoms: _355  and  _356
REMARK  141  A    between atoms: _355  and  _358
REMARK  142  A    between atoms: _358  and  _359
REMARK  143  A    between atoms: _364  and  _366
REMARK  144  A    between atoms: _366  and  _367
REMARK  145  A    between atoms: _366  and  _369
REMARK  146  A    between atoms: _369  and  _370
REMARK  147  A    between atoms: _370  and  _371
REMARK  148  A    between atoms: _374  and  _376
REMARK  149  A    between atoms: _376  and  _377
REMARK  150  A    between atoms: _376  and  _379
REMARK  151  A    between atoms: _379  and  _380
REMARK  152  A    between atoms: _390  and  _392
REMARK  153  A    between atoms: _392  and  _393
REMARK  154  A    between atoms: _392  and  _395
REMARK  155  A    between atoms: _395  and  _396
REMARK  156  A    between atoms: _401  and  _403
REMARK  157  A    between atoms: _403  and  _404
REMARK  158  A    between atoms: _403  and  _406
REMARK  159  A    between atoms: _409  and  _411
REMARK  160  A    between atoms: _411  and  _412
REMARK  161  A    between atoms: _411  and  _414
REMARK  162  A    between atoms: _414  and  _415
REMARK  163  A    between atoms: _419  and  _420
REMARK  164  A    between atoms: _425  and  _427
REMARK  165  A    between atoms: _427  and  _428
REMARK  166  A    between atoms: _427  and  _430
REMARK  167  A    between atoms: _430  and  _431
REMARK  168  A    between atoms: _431  and  _432
REMARK  169  A    between atoms: _437  and  _439
REMARK  170  A    between atoms: _439  and  _440
REMARK  171  A    between atoms: _439  and  _442
REMARK  172  A    between atoms: _442  and  _443
REMARK  173  A    between atoms: _443  and  _444
REMARK  174  A    between atoms: _447  and  _449
REMARK  175  A    between atoms: _449  and  _450
REMARK  176  A    between atoms: _449  and  _452
REMARK  177  A    between atoms: _452  and  _453
REMARK  178  A    between atoms: _455  and  _457
REMARK  179  A    between atoms: _457  and  _458
REMARK  180  A    between atoms: _457  and  _460
REMARK  181  A    between atoms: _460  and  _461
REMARK  182  A    between atoms: _464  and  _466
REMARK  183  A    between atoms: _466  and  _467
REMARK  184  A    between atoms: _466  and  _469
REMARK  185  A    between atoms: _469  and  _470
REMARK  186  A    between atoms: _476  and  _478
REMARK  187  A    between atoms: _478  and  _479
REMARK  188  A    between atoms: _478  and  _481
REMARK  189  A    between atoms: _481  and  _482
REMARK  190  A    between atoms: _482  and  _483
REMARK  191  A    between atoms: _483  and  _484
REMARK  192  A    between atoms: _493  and  _495
REMARK  193  A    between atoms: _495  and  _496
REMARK  194  A    between atoms: _495  and  _498
REMARK  195  A    between atoms: _498  and  _499
REMARK  196  A    between atoms: _505  and  _507
REMARK  197  A    between atoms: _507  and  _508
REMARK  198  A    between atoms: _507  and  _510
REMARK  199  A    between atoms: _510  and  _511
REMARK  200  A    between atoms: _513  and  _515
REMARK  201  A    between atoms: _515  and  _516
REMARK  202  A    between atoms: _515  and  _518
REMARK  203  A    between atoms: _518  and  _519
REMARK  204  A    between atoms: _519  and  _520
REMARK  205  A    between atoms: _523  and  _525
REMARK  206  A    between atoms: _525  and  _526
REMARK  207  A    between atoms: _525  and  _528
REMARK  208  A    between atoms: _528  and  _529
REMARK  209  A    between atoms: _531  and  _533
REMARK  210  A    between atoms: _533  and  _534
REMARK  211  A    between atoms: _533  and  _536
REMARK  212  A    between atoms: _536  and  _537
REMARK  213  A    between atoms: _542  and  _543
REMARK  214  A    between atoms: _545  and  _547
REMARK  215  A    between atoms: _547  and  _548
REMARK  216  A    between atoms: _547  and  _550
REMARK  217  A    between atoms: _550  and  _551
REMARK  218  A    between atoms: _557  and  _559
REMARK  219  A    between atoms: _559  and  _560
REMARK  220  A    between atoms: _559  and  _562
REMARK  221  A    between atoms: _562  and  _563
REMARK  222  A    between atoms: _566  and  _568
REMARK  223  A    between atoms: _568  and  _569
REMARK  224  A    between atoms: _568  and  _571
REMARK  225  A    between atoms: _574  and  _576
REMARK  226  A    between atoms: _576  and  _577
REMARK  227  A    between atoms: _576  and  _579
REMARK  228  A    between atoms: _579  and  _580
REMARK  229  A    between atoms: _585  and  _586
REMARK  230  A    between atoms: _588  and  _590
REMARK  231  A    between atoms: _590  and  _591
REMARK  232  A    between atoms: _593  and  _595
REMARK  233  A    between atoms: _595  and  _596
REMARK  234  A    between atoms: _595  and  _598
REMARK  235  A    between atoms: _601  and  _603
REMARK  236  A    between atoms: _603  and  _604
REMARK  237  A    between atoms: _603  and  _606
REMARK  238  A    between atoms: _606  and  _607
REMARK  239  A    between atoms: _611  and  _612
REMARK  240  A    between atoms: _617  and  _619
REMARK  241  A    between atoms: _619  and  _620
REMARK  242  A    between atoms: _619  and  _622
REMARK  243  A    between atoms: _622  and  _623
REMARK  244  A    between atoms: _626  and  _628
REMARK  245  A    between atoms: _628  and  _629
REMARK  246  A    between atoms: _628  and  _631
REMARK  247  A    between atoms: _631  and  _632
REMARK  248  A    between atoms: _642  and  _644
REMARK  249  A    between atoms: _644  and  _645
REMARK  250  A    between atoms: _644  and  _647
REMARK  251  A    between atoms: _647  and  _648
REMARK  252  A    between atoms: _648  and  _649
REMARK  253  A    between atoms: _652  and  _653
REMARK  254  A    between atoms: _658  and  _660
REMARK  255  A    between atoms: _660  and  _661
REMARK  256  A    between atoms: _660  and  _663
REMARK  257  A    between atoms: _663  and  _664
REMARK  258  A    between atoms: _669  and  _671
REMARK  259  A    between atoms: _671  and  _672
REMARK  260  A    between atoms: _674  and  _676
REMARK  261  A    between atoms: _676  and  _677
REMARK  262  A    between atoms: _676  and  _679
REMARK  263  A    between atoms: _679  and  _680
REMARK  264  A    between atoms: _685  and  _686
REMARK  265  A    between atoms: _688  and  _690
REMARK  266  A    between atoms: _690  and  _691
REMARK  267  A    between atoms: _690  and  _693
REMARK  268  A    between atoms: _693  and  _694
REMARK  269  A    between atoms: _694  and  _695
REMARK  270  A    between atoms: _698  and  _700
REMARK  271  A    between atoms: _700  and  _701
REMARK  272  A    between atoms: _700  and  _703
REMARK  273  A    between atoms: _703  and  _704
REMARK                            x       y       z     vdW  Elec       q    Type
REMARK                         _______ _______ _______ _____ _____    ______ ____
ROOT
ATOM      1  CA  ASP A   4      34.669  27.951  14.671  0.00  0.00    +0.160 C 
ENDROOT
BRANCH   1   3
ATOM      2  C   VAL A   3      36.575  27.658  16.192  0.00  0.00    +0.241 C 
ATOM      3  N   ASP A   4      35.325  27.427  15.857  0.00  0.00    -0.297 N 
ATOM      4  H   ASP A   4      34.762  26.823  16.489  0.00  0.00    +0.150 HD
ATOM      5  O   VAL A   3      37.325  28.414  15.564  0.00  0.00    -0.273 OA
BRANCH   2   6
ATOM      6  CA  VAL A   3      37.031  26.896  17.440  0.00  0.00    +0.149 C 
BRANCH   6   8
ATOM      7  C   TYR A   2      38.214  24.829  16.889  0.00  0.00    +0.241 C 
ATOM      8  N   VAL A   3      38.221  26.136  17.104  0.00  0.00    -0.297 N 
ATOM      9  H   VAL A   3      39.126  26.644  17.028  0.00  0.00    +0.150 HD
ATOM     10  O   TYR A   2      37.201  24.126  16.996  0.00  0.00    -0.273 OA
BRANCH   7  11
ATOM     11  CA  TYR A   2      39.570  24.219  16.536  0.00  0.00    +0.153 C 
BRANCH  11  14
ATOM     12  C   GLN A   1      40.000  23.143  18.677  0.00  0.00    +0.238 C 
ATOM     13  O   GLN A   1      40.041  24.190  19.316  0.00  0.00    -0.274 OA
ATOM     14  N   TYR A   2      39.825  23.079  17.362  0.00  0.00    -0.297 N 
ATOM     15  H   TYR A   2      39.876  22.146  16.906  0.00  0.00    +0.150 HD
BRANCH  12  16
ATOM     16  CA  GLN A   1      40.110  21.786  19.358  0.00  0.00    +0.145 C 
BRANCH  16  17
ATOM     17  N   GLN A   1      40.751  21.798  20.667  0.00  0.00    -0.238 NA
ATOM     18  H   GLN A   1      40.874  22.704  21.163  0.00  0.00    +0.142 HD
ENDBRANCH  16  17
BRANCH  16  19
ATOM     19  CB  GLN A   1      38.689  21.208  19.462  0.00  0.00    +0.036 C 
BRANCH  19  20
ATOM     20  CG  GLN A   1      37.739  21.989  20.345  0.00  0.00    +0.087 C 
BRANCH  20  21
ATOM     21  CD  GLN A   1      36.457  21.231  20.642  0.00  0.00    +0.219 C 
ATOM     22  NE2 GLN A   1      36.543  20.268  21.572  0.00  0.00    -0.329 N 
ATOM     23 HE21 GLN A   1      37.454  20.070  22.033  0.00  0.00    +0.145 HD
ATOM     24 HE22 GLN A   1      35.699  19.719  21.832  0.00  0.00    +0.145 HD
ATOM     25  OE1 GLN A   1      35.387  21.521  20.047  0.00  0.00    -0.275 OA
ENDBRANCH  20  21
ENDBRANCH  19  20
ENDBRANCH  16  19
ENDBRANCH  12  16
ENDBRANCH  11  14
BRANCH  11  26
ATOM     26  CB  TYR A   2      39.588  23.802  15.045  0.00  0.00    +0.055 C 
BRANCH  26  27
ATOM     27  CG  TYR A   2      39.414  24.983  14.110  0.00  0.00    -0.020 A 
ATOM     28  CD2 TYR A   2      40.472  25.866  13.865  0.00  0.00    -0.001 A 
ATOM     29  CE2 TYR A   2      40.314  26.956  13.038  0.00  0.00    +0.036 A 
ATOM     30  CZ  TYR A   2      39.101  27.179  12.463  0.00  0.00    +0.134 A 
ATOM     31  CE1 TYR A   2      38.034  26.309  12.675  0.00  0.00    +0.036 A 
ATOM     32  CD1 TYR A   2      38.202  25.234  13.496  0.00  0.00    -0.001 A 
BRANCH  30  33
ATOM     33  OH  TYR A   2      38.944  28.257  11.659  0.00  0.00    -0.506 OA
ATOM     34  HH  TYR A   2      38.014  28.282  11.320  0.00  0.00    +0.292 HD
ENDBRANCH  30  33
ENDBRANCH  26  27
ENDBRANCH  11  26
ENDBRANCH   7  11
ENDBRANCH   6   8
BRANCH   6  35
ATOM     35  CB  VAL A   3      37.279  27.887  18.601  0.00  0.00    +0.027 C 
ATOM     36  CG2 VAL A   3      37.630  27.155  19.864  0.00  0.00    +0.002 C 
ATOM     37  CG1 VAL A   3      36.051  28.796  18.817  0.00  0.00    +0.002 C 
ENDBRANCH   6  35
ENDBRANCH   2   6
ENDBRANCH   1   3
BRANCH   1  38
ATOM     38  C   ASP A   4      34.473  29.463  14.797  0.00  0.00    +0.241 C 
ATOM     39  O   ASP A   4      33.883  29.908  15.774  0.00  0.00    -0.273 OA
ATOM     40  N   THR A   5      34.946  30.214  13.792  0.00  0.00    -0.295 N 
ATOM     41  H   THR A   5      35.485  29.748  13.035  0.00  0.00    +0.150 HD
BRANCH  40  42
ATOM     42  CA  THR A   5      34.736  31.676  13.712  0.00  0.00    +0.176 C 
BRANCH  42  43
ATOM     43  C   THR A   5      34.110  32.178  12.393  0.00  0.00    +0.243 C 
ATOM     44  O   THR A   5      34.163  33.356  12.112  0.00  0.00    -0.273 OA
ATOM     45  N   LEU A   6      33.515  31.294  11.604  0.00  0.00    -0.297 N 
ATOM     46  H   LEU A   6      33.577  30.284  11.843  0.00  0.00    +0.150 HD
BRANCH  45  47
ATOM     47  CA  LEU A   6      32.776  31.693  10.412  0.00  0.00    +0.149 C 
BRANCH  47  48
ATOM     48  C   LEU A   6      31.793  32.829  10.685  0.00  0.00    +0.241 C 
ATOM     49  N   TYR A   7      30.907  32.638  11.663  0.00  0.00    -0.298 N 
ATOM     50  H   TYR A   7      30.908  31.732  12.173  0.00  0.00    +0.150 HD
ATOM     51  O   LEU A   6      31.830  33.853  10.001  0.00  0.00    -0.273 OA
BRANCH  49  52
ATOM     52  CA  TYR A   7      29.926  33.671  12.045  0.00  0.00    +0.141 C 
BRANCH  52  53
ATOM     53  C   TYR A   7      30.030  33.986  13.539  0.00  0.00    +0.227 C 
ATOM     54  O   TYR A   7      29.169  33.603  14.332  0.00  0.00    -0.286 OA
ENDBRANCH  52  53
BRANCH  52  55
ATOM     55  CB  TYR A   7      28.498  33.225  11.723  0.00  0.00    +0.054 C 
BRANCH  55  56
ATOM     56  CG  TYR A   7      28.239  32.991  10.273  0.00  0.00    -0.020 A 
ATOM     57  CD2 TYR A   7      27.967  31.709   9.801  0.00  0.00    -0.001 A 
ATOM     58  CE2 TYR A   7      27.725  31.478   8.468  0.00  0.00    +0.036 A 
ATOM     59  CZ  TYR A   7      27.750  32.536   7.578  0.00  0.00    +0.134 A 
ATOM     60  CE1 TYR A   7      28.018  33.828   8.035  0.00  0.00    +0.036 A 
ATOM     61  CD1 TYR A   7      28.263  34.039   9.374  0.00  0.00    -0.001 A 
BRANCH  59  62
ATOM     62  OH  TYR A   7      27.507  32.301   6.238  0.00  0.00    -0.506 OA
ATOM     63  HH  TYR A   7      27.561  33.155   5.739  0.00  0.00    +0.292 HD
ENDBRANCH  59  62
ENDBRANCH  55  56
ENDBRANCH  52  55
ENDBRANCH  49  52
ENDBRANCH  47  48
BRANCH  47  64
ATOM     64  CB  LEU A   6      31.998  30.507   9.821  0.00  0.00    +0.029 C 
BRANCH  64  65
ATOM     65  CG  LEU A   6      31.374  30.827   8.447  0.00  0.00    +0.002 C 
ATOM     66  CD2 LEU A   6      30.490  29.672   7.943  0.00  0.00    +0.000 C 
ATOM     67  CD1 LEU A   6      32.476  31.212   7.409  0.00  0.00    +0.000 C 
ENDBRANCH  64  65
ENDBRANCH  47  64
ENDBRANCH  45  47
ENDBRANCH  42  43
BRANCH  42  68
ATOM     68  CB  THR A   5      36.081  32.469  13.959  0.00  0.00    +0.137 C 
ATOM     69  CG2 THR A   5      36.619  32.260  15.364  0.00  0.00    +0.034 C 
BRANCH  68  70
ATOM     70  OG1 THR A   5      37.104  31.955  13.113  0.00  0.00    -0.382 OA
ATOM     71  HG1 THR A   5      37.944  32.455  13.272  0.00  0.00    +0.210 HD
ENDBRANCH  68  70
ENDBRANCH  42  68
ENDBRANCH  40  42
ENDBRANCH   1  38
BRANCH   1  72
ATOM     72  CB  ASP A   4      33.301  27.218  14.541  0.00  0.00    +0.143 C 
BRANCH  72  73
ATOM     73  CG  ASP A   4      32.457  27.672  13.348  0.00  0.00    +0.367 C 
ATOM     74  OD2 ASP A   4      31.252  27.346  13.248  0.00  0.00    -0.246 OA
ATOM     75  OD1 ASP A   4      32.947  28.383  12.439  0.00  0.00    -0.246 OA
ENDBRANCH  72  73
ENDBRANCH   1  72
TORSDOF 30
REMARK  Name = ../refined-set-2016/1q84/1q84_pocket.pdb
REMARK  273 active torsions:
REMARK  status: ('A' for Active; 'I' for Inactive)
REMARK    1  A    between atoms: _1  and  _3
REMARK    2  A    between atoms: _3  and  _4
REMARK    3  A    between atoms: _3  and  _6
REMARK    4  A    between atoms: _6  and  _7
REMARK    5  A    between atoms: _7  and  _8
REMARK    6  A    between atoms: _13  and  _15
REMARK    7  A    between atoms: _15  and  _16
REMARK    8  A    between atoms: _15  and  _18
REMARK    9  A    between atoms: _18  and  _19
REMARK   10  A    between atoms: _24  and  _25
REMARK   11  A    between atoms: _27  and  _29
REMARK   12  A    between atoms: _29  and  _30
REMARK   13  A    between atoms: _29  and  _32
REMARK   14  A    between atoms: _35  and  _37
REMARK   15  A    between atoms: _37  and  _38
REMARK   16  A    between atoms: _37  and  _40
REMARK   17  A    between atoms: _40  and  _41
REMARK   18  A    between atoms: _44  and  _46
REMARK   19  A    between atoms: _46  and  _47
REMARK   20  A    between atoms: _46  and  _49
REMARK   21  A    between atoms: _49  and  _50
REMARK   22  A    between atoms: _53  and  _55
REMARK   23  A    between atoms: _55  and  _56
REMARK   24  A    between atoms: _55  and  _58
REMARK   25  A    between atoms: _58  and  _59
REMARK   26  A    between atoms: _62  and  _64
REMARK   27  A    between atoms: _64  and  _65
REMARK   28  A    between atoms: _64  and  _67
REMARK   29  A    between atoms: _67  and  _68
REMARK   30  A    between atoms: _73  and  _74
REMARK   31  A    between atoms: _76  and  _78
REMARK   32  A    between atoms: _78  and  _79
REMARK   33  A    between atoms: _78  and  _81
REMARK   34  A    between atoms: _81  and  _82
REMARK   35  A    between atoms: _88  and  _90
REMARK   36  A    between atoms: _90  and  _91
REMARK   37  A    between atoms: _90  and  _93
REMARK   38  A    between atoms: _93  and  _94
REMARK   39  A    between atoms: _94  and  _95
REMARK   40  A    between atoms: _98  and  _100
REMARK   41  A    between atoms: _100  and  _101
REMARK   42  A    between atoms: _103  and  _105
REMARK   43  A    between atoms: _105  and  _106
REMARK   44  A    between atoms: _105  and  _108
REMARK   45  A    between atoms: _108  and  _109
REMARK   46  A    between atoms: _112  and  _114
REMARK   47  A    between atoms: _114  and  _115
REMARK   48  A    between atoms: _114  and  _117
REMARK   49  A    between atoms: _117  and  _118
REMARK   50  A    between atoms: _118  and  _119
REMARK   51  A    between atoms: _122  and  _124
REMARK   52  A    between atoms: _124  and  _125
REMARK   53  A    between atoms: _124  and  _127
REMARK   54  A    between atoms: _127  and  _128
REMARK   55  A    between atoms: _128  and  _129
REMARK   56  A    between atoms: _131  and  _133
REMARK   57  A    between atoms: _133  and  _134
REMARK   58  A    between atoms: _133  and  _136
REMARK   59  A    between atoms: _136  and  _137
REMARK   60  A    between atoms: _147  and  _149
REMARK   61  A    between atoms: _149  and  _150
REMARK   62  A    between atoms: _149  and  _152
REMARK   63  A    between atoms: _152  and  _153
REMARK   64  A    between atoms: _158  and  _160
REMARK   65  A    between atoms: _160  and  _161
REMARK   66  A    between atoms: _160  and  _163
REMARK   67  A    between atoms: _163  and  _164
REMARK   68  A    between atoms: _174  and  _176
REMARK   69  A    between atoms: _176  and  _177
REMARK   70  A    between atoms: _176  and  _179
REMARK   71  A    between atoms: _179  and  _180
REMARK   72  A    between atoms: _185  and  _186
REMARK   73  A    between atoms: _188  and  _190
REMARK   74  A    between atoms: _190  and  _191
REMARK   75  A    between atoms: _193  and  _195
REMARK   76  A    between atoms: _195  and  _196
REMARK   77  A    between atoms: _198  and  _200
REMARK   78  A    between atoms: _200  and  _201
REMARK   79  A    between atoms: _203  and  _205
REMARK   80  A    between atoms: _205  and  _206
REMARK   81  A    between atoms: _205  and  _208
REMARK   82  A    between atoms: _208  and  _209
REMARK   83  A    between atoms: _215  and  _217
REMARK   84  A    between atoms: _217  and  _218
REMARK   85  A    between atoms: _217  and  _220
REMARK   86  A    between atoms: _220  and  _221
REMARK   87  A    between atoms: _226  and  _227
REMARK   88  A    between atoms: _229  and  _231
REMARK   89  A    between atoms: _231  and  _232
REMARK   90  A    between atoms: _231  and  _234
REMARK   91  A    between atoms: _234  and  _235
REMARK   92  A    between atoms: _237  and  _239
REMARK   93  A    between atoms: _239  and  _240
REMARK   94  A    between atoms: _242  and  _244
REMARK   95  A    between atoms: _244  and  _245
REMARK   96  A    between atoms: _248  and  _250
REMARK   97  A    between atoms: _250  and  _251
REMARK   98  A    between atoms: _250  and  _253
REMARK   99  A    between atoms: _253  and  _254
REMARK  100  A    between atoms: _257  and  _259
REMARK  101  A    between atoms: _259  and  _260
REMARK  102  A    between atoms: _259  and  _262
REMARK  103  A    between atoms: _265  and  _267
REMARK  104  A    between atoms: _267  and  _268
REMARK  105  A    between atoms: _267  and  _270
REMARK  106  A    between atoms: _270  and  _271
REMARK  107  A    between atoms: _276  and  _277
REMARK  108  A    between atoms: _279  and  _281
REMARK  109  A    between atoms: _281  and  _282
REMARK  110  A    between atoms: _281  and  _284
REMARK  111  A    between atoms: _284  and  _285
REMARK  112  A    between atoms: _290  and  _291
REMARK  113  A    between atoms: _293  and  _295
REMARK  114  A    between atoms: _295  and  _296
REMARK  115  A    between atoms: _295  and  _298
REMARK  116  A    between atoms: _298  and  _299
REMARK  117  A    between atoms: _299  and  _300
REMARK  118  A    between atoms: _303  and  _305
REMARK  119  A    between atoms: _305  and  _306
REMARK  120  A    between atoms: _305  and  _308
REMARK  121  A    between atoms: _308  and  _309
REMARK  122  A    between atoms: _311  and  _313
REMARK  123  A    between atoms: _313  and  _314
REMARK  124  A    between atoms: _317  and  _319
REMARK  125  A    between atoms: _319  and  _320
REMARK  126  A    between atoms: _322  and  _324
REMARK  127  A    between atoms: _324  and  _325
REMARK  128  A    between atoms: _328  and  _330
REMARK  129  A    between atoms: _330  and  _331
REMARK  130  A    between atoms: _330  and  _333
REMARK  131  A    between atoms: _333  and  _334
REMARK  132  A    between atoms: _336  and  _338
REMARK  133  A    between atoms: _338  and  _339
REMARK  134  A    between atoms: _338  and  _341
REMARK  135  A    between atoms: _344  and  _346
REMARK  136  A    between atoms: _346  and  _347
REMARK  137  A    between atoms: _346  and  _349
REMARK  138  A    between atoms: _349  and  _350
REMARK  139  A    between atoms: _353  and  _355
REMARK  140  A    between atoms: _355  and  _356
REMARK  141  A    between atoms: _355  and  _358
REMARK  142  A    between atoms: _358  and  _359
REMARK  143  A    between atoms: _364  and  _366
REMARK  144  A    between atoms: _366  and  _367
REMARK  145  A    between atoms: _366  and  _369
REMARK  146  A    between atoms: _369  and  _370
REMARK  147  A    between atoms: _370  and  _371
REMARK  148  A    between atoms: _374  and  _376
REMARK  149  A    between atoms: _376  and  _377
REMARK  150  A    between atoms: _376  and  _379
REMARK  151  A    between atoms: _379  and  _380
REMARK  152  A    between atoms: _390  and  _392
REMARK  153  A    between atoms: _392  and  _393
REMARK  154  A    between atoms: _392  and  _395
REMARK  155  A    between atoms: _395  and  _396
REMARK  156  A    between atoms: _401  and  _403
REMARK  157  A    between atoms: _403  and  _404
REMARK  158  A    between atoms: _403  and  _406
REMARK  159  A    between atoms: _409  and  _411
REMARK  160  A    between atoms: _411  and  _412
REMARK  161  A    between atoms: _411  and  _414
REMARK  162  A    between atoms: _414  and  _415
REMARK  163  A    between atoms: _419  and  _420
REMARK  164  A    between atoms: _425  and  _427
REMARK  165  A    between atoms: _427  and  _428
REMARK  166  A    between atoms: _427  and  _430
REMARK  167  A    between atoms: _430  and  _431
REMARK  168  A    between atoms: _431  and  _432
REMARK  169  A    between atoms: _437  and  _439
REMARK  170  A    between atoms: _439  and  _440
REMARK  171  A    between atoms: _439  and  _442
REMARK  172  A    between atoms: _442  and  _443
REMARK  173  A    between atoms: _443  and  _444
REMARK  174  A    between atoms: _447  and  _449
REMARK  175  A    between atoms: _449  and  _450
REMARK  176  A    between atoms: _449  and  _452
REMARK  177  A    between atoms: _452  and  _453
REMARK  178  A    between atoms: _455  and  _457
REMARK  179  A    between atoms: _457  and  _458
REMARK  180  A    between atoms: _457  and  _460
REMARK  181  A    between atoms: _460  and  _461
REMARK  182  A    between atoms: _464  and  _466
REMARK  183  A    between atoms: _466  and  _467
REMARK  184  A    between atoms: _466  and  _469
REMARK  185  A    between atoms: _469  and  _470
REMARK  186  A    between atoms: _476  and  _478
REMARK  187  A    between atoms: _478  and  _479
REMARK  188  A    between atoms: _478  and  _481
REMARK  189  A    between atoms: _481  and  _482
REMARK  190  A    between atoms: _482  and  _483
REMARK  191  A    between atoms: _483  and  _484
REMARK  192  A    between atoms: _493  and  _495
REMARK  193  A    between atoms: _495  and  _496
REMARK  194  A    between atoms: _495  and  _498
REMARK  195  A    between atoms: _498  and  _499
REMARK  196  A    between atoms: _505  and  _507
REMARK  197  A    between atoms: _507  and  _508
REMARK  198  A    between atoms: _507  and  _510
REMARK  199  A    between atoms: _510  and  _511
REMARK  200  A    between atoms: _513  and  _515
REMARK  201  A    between atoms: _515  and  _516
REMARK  202  A    between atoms: _515  and  _518
REMARK  203  A    between atoms: _518  and  _519
REMARK  204  A    between atoms: _519  and  _520
REMARK  205  A    between atoms: _523  and  _525
REMARK  206  A    between atoms: _525  and  _526
REMARK  207  A    between atoms: _525  and  _528
REMARK  208  A    between atoms: _528  and  _529
REMARK  209  A    between atoms: _531  and  _533
REMARK  210  A    between atoms: _533  and  _534
REMARK  211  A    between atoms: _533  and  _536
REMARK  212  A    between atoms: _536  and  _537
REMARK  213  A    between atoms: _542  and  _543
REMARK  214  A    between atoms: _545  and  _547
REMARK  215  A    between atoms: _547  and  _548
REMARK  216  A    between atoms: _547  and  _550
REMARK  217  A    between atoms: _550  and  _551
REMARK  218  A    between atoms: _557  and  _559
REMARK  219  A    between atoms: _559  and  _560
REMARK  220  A    between atoms: _559  and  _562
REMARK  221  A    between atoms: _562  and  _563
REMARK  222  A    between atoms: _566  and  _568
REMARK  223  A    between atoms: _568  and  _569
REMARK  224  A    between atoms: _568  and  _571
REMARK  225  A    between atoms: _574  and  _576
REMARK  226  A    between atoms: _576  and  _577
REMARK  227  A    between atoms: _576  and  _579
REMARK  228  A    between atoms: _579  and  _580
REMARK  229  A    between atoms: _585  and  _586
REMARK  230  A    between atoms: _588  and  _590
REMARK  231  A    between atoms: _590  and  _591
REMARK  232  A    between atoms: _593  and  _595
REMARK  233  A    between atoms: _595  and  _596
REMARK  234  A    between atoms: _595  and  _598
REMARK  235  A    between atoms: _601  and  _603
REMARK  236  A    between atoms: _603  and  _604
REMARK  237  A    between atoms: _603  and  _606
REMARK  238  A    between atoms: _606  and  _607
REMARK  239  A    between atoms: _611  and  _612
REMARK  240  A    between atoms: _617  and  _619
REMARK  241  A    between atoms: _619  and  _620
REMARK  242  A    between atoms: _619  and  _622
REMARK  243  A    between atoms: _622  and  _623
REMARK  244  A    between atoms: _626  and  _628
REMARK  245  A    between atoms: _628  and  _629
REMARK  246  A    between atoms: _628  and  _631
REMARK  247  A    between atoms: _631  and  _632
REMARK  248  A    between atoms: _642  and  _644
REMARK  249  A    between atoms: _644  and  _645
REMARK  250  A    between atoms: _644  and  _647
REMARK  251  A    between atoms: _647  and  _648
REMARK  252  A    between atoms: _648  and  _649
REMARK  253  A    between atoms: _652  and  _653
REMARK  254  A    between atoms: _658  and  _660
REMARK  255  A    between atoms: _660  and  _661
REMARK  256  A    between atoms: _660  and  _663
REMARK  257  A    between atoms: _663  and  _664
REMARK  258  A    between atoms: _669  and  _671
REMARK  259  A    between atoms: _671  and  _672
REMARK  260  A    between atoms: _674  and  _676
REMARK  261  A    between atoms: _676  and  _677
REMARK  262  A    between atoms: _676  and  _679
REMARK  263  A    between atoms: _679  and  _680
REMARK  264  A    between atoms: _685  and  _686
REMARK  265  A    between atoms: _688  and  _690
REMARK  266  A    between atoms: _690  and  _691
REMARK  267  A    between atoms: _690  and  _693
REMARK  268  A    between atoms: _693  and  _694
REMARK  269  A    between atoms: _694  and  _695
REMARK  270  A    between atoms: _698  and  _700
REMARK  271  A    between atoms: _700  and  _701
REMARK  272  A    between atoms: _700  and  _703
REMARK  273  A    between atoms: _703  and  _704
REMARK                            x       y       z     vdW  Elec       q    Type
REMARK                         _______ _______ _______ _____ _____    ______ ____
ROOT
ATOM      1  CA  GLU A   5      28.387  29.309  19.072  0.00  0.00    +0.149 C 
ENDROOT
BRANCH   1   2
ATOM      2  C   GLU A   5      27.796  28.241  19.973  0.00  0.00    +0.241 C 
ATOM      3  O   GLU A   5      28.470  27.763  20.879  0.00  0.00    -0.273 OA
ATOM      4  N   MET A   6      26.562  27.823  19.715  0.00  0.00    -0.297 N 
ATOM      5  H   MET A   6      26.016  28.273  18.953  0.00  0.00    +0.150 HD
BRANCH   4   6
ATOM      6  CA  MET A   6      25.963  26.738  20.490  0.00  0.00    +0.149 C 
BRANCH   6   7
ATOM      7  C   MET A   6      26.750  25.409  20.351  0.00  0.00    +0.241 C 
ATOM      8  O   MET A   6      26.598  24.531  21.187  0.00  0.00    -0.273 OA
ATOM      9  N   TRP A   7      27.565  25.270  19.297  0.00  0.00    -0.297 N 
ATOM     10  H   TRP A   7      27.608  26.033  18.591  0.00  0.00    +0.150 HD
BRANCH   9  11
ATOM     11  CA  TRP A   7      28.396  24.084  19.105  0.00  0.00    +0.153 C 
BRANCH  11  12
ATOM     12  C   TRP A   7      29.825  24.289  19.639  0.00  0.00    +0.241 C 
ATOM     13  N   ASN A   8      30.201  25.531  19.904  0.00  0.00    -0.298 N 
ATOM     14  H   ASN A   8      29.506  26.302  19.838  0.00  0.00    +0.150 HD
ATOM     15  O   TRP A   7      30.579  23.331  19.783  0.00  0.00    -0.273 OA
BRANCH  13  16
ATOM     16  CA  ASN A   8      31.577  25.833  20.287  0.00  0.00    +0.146 C 
BRANCH  16  17
ATOM     17  C   ASN A   8      31.851  25.433  21.735  0.00  0.00    +0.227 C 
ATOM     18  O   ASN A   8      30.934  25.294  22.535  0.00  0.00    -0.286 OA
ENDBRANCH  16  17
BRANCH  16  19
ATOM     19  CB  ASN A   8      31.876  27.321  20.061  0.00  0.00    +0.112 C 
BRANCH  19  20
ATOM     20  CG  ASN A   8      32.437  27.609  18.660  0.00  0.00    +0.222 C 
ATOM     21  ND2 ASN A   8      32.578  28.903  18.320  0.00  0.00    -0.329 N 
ATOM     22 HD21 ASN A   8      32.287  29.650  18.983  0.00  0.00    +0.145 HD
ATOM     23 HD22 ASN A   8      32.978  29.157  17.394  0.00  0.00    +0.145 HD
ATOM     24  OD1 ASN A   8      32.769  26.683  17.905  0.00  0.00    -0.275 OA
ENDBRANCH  19  20
ENDBRANCH  16  19
ENDBRANCH  13  16
ENDBRANCH  11  12
BRANCH  11  25
ATOM     25  CB  TRP A   7      28.412  23.639  17.612  0.00  0.00    +0.057 C 
BRANCH  25  26
ATOM     26  CG  TRP A   7      27.035  23.477  17.027  0.00  0.00    -0.002 A 
ATOM     27  CD2 TRP A   7      26.103  22.413  17.264  0.00  0.00    +0.013 A 
ATOM     28  CE3 TRP A   7      26.140  21.243  18.007  0.00  0.00    +0.001 A 
ATOM     29  CZ3 TRP A   7      25.033  20.416  18.013  0.00  0.00    +0.000 A 
ATOM     30  CH2 TRP A   7      23.903  20.721  17.276  0.00  0.00    +0.001 A 
ATOM     31  CZ2 TRP A   7      23.830  21.869  16.528  0.00  0.00    +0.017 A 
ATOM     32  CE2 TRP A   7      24.929  22.705  16.537  0.00  0.00    +0.056 A 
ATOM     33  NE1 TRP A   7      25.143  23.876  15.874  0.00  0.00    -0.352 N 
ATOM     34  HE1 TRP A   7      24.468  24.343  15.236  0.00  0.00    +0.166 HD
ATOM     35  CD1 TRP A   7      26.403  24.340  16.189  0.00  0.00    +0.068 A 
ENDBRANCH  25  26
ENDBRANCH  11  25
ENDBRANCH   9  11
ENDBRANCH   6   7
BRANCH   6  36
ATOM     36  CB  MET A   6      24.498  26.539  20.094  0.00  0.00    +0.041 C 
BRANCH  36  37
ATOM     37  CG  MET A   6      24.304  26.002  18.657  0.00  0.00    +0.060 C 
BRANCH  37  38
ATOM     38  SD  MET A   6      22.556  25.579  18.335  0.00  0.00    -0.139 S 
ATOM     39  CE  MET A   6      22.425  24.046  19.201  0.00  0.00    +0.069 C 
ENDBRANCH  37  38
ENDBRANCH  36  37
ENDBRANCH   6  36
ENDBRANCH   4   6
ENDBRANCH   1   2
BRANCH   1  41
ATOM     40  C   THR A   4      27.967  28.312  16.905  0.00  0.00    +0.243 C 
ATOM     41  N   GLU A   5      27.753  29.308  17.756  0.00  0.00    -0.297 N 
ATOM     42  H   GLU A   5      27.129  30.094  17.484  0.00  0.00    +0.150 HD
ATOM     43  O   THR A   4      28.543  27.300  17.248  0.00  0.00    -0.273 OA
BRANCH  40  44
ATOM     44  CA  THR A   4      27.429  28.450  15.469  0.00  0.00    +0.176 C 
BRANCH  44  46
ATOM     45  C   GLY A   3      24.985  28.370  15.291  0.00  0.00    +0.243 C 
ATOM     46  N   THR A   4      26.103  29.078  15.389  0.00  0.00    -0.295 N 
ATOM     47  H   THR A   4      26.038  30.116  15.410  0.00  0.00    +0.150 HD
ATOM     48  O   GLY A   3      24.956  27.146  15.116  0.00  0.00    -0.273 OA
BRANCH  45  49
ATOM     49  CA  GLY A   3      23.694  29.138  15.370  0.00  0.00    +0.176 C 
BRANCH  49  52
ATOM     50  C   GLU A   2      24.035  30.249  17.509  0.00  0.00    +0.241 C 
ATOM     51  O   GLU A   2      24.380  29.195  18.071  0.00  0.00    -0.273 OA
ATOM     52  N   GLY A   3      23.745  30.313  16.209  0.00  0.00    -0.295 N 
ATOM     53  H   GLY A   3      23.549  31.242  15.784  0.00  0.00    +0.150 HD
BRANCH  50  54
ATOM     54  CA  GLU A   2      23.969  31.583  18.286  0.00  0.00    +0.149 C 
BRANCH  54  56
ATOM     55  C   PHE A   1      25.583  32.782  16.867  0.00  0.00    +0.239 C 
ATOM     56  N   GLU A   2      24.401  32.738  17.474  0.00  0.00    -0.297 N 
ATOM     57  H   GLU A   2      23.756  33.548  17.373  0.00  0.00    +0.150 HD
ATOM     58  O   PHE A   1      26.363  31.842  16.841  0.00  0.00    -0.274 OA
BRANCH  55  59
ATOM     59  CA  PHE A   1      25.949  34.068  16.154  0.00  0.00    +0.149 C 
BRANCH  59  60
ATOM     60  N   PHE A   1      27.224  34.553  16.675  0.00  0.00    -0.238 NA
ATOM     61  H   PHE A   1      28.103  34.185  16.258  0.00  0.00    +0.142 HD
ENDBRANCH  59  60
BRANCH  59  62
ATOM     62  CB  PHE A   1      26.081  33.841  14.633  0.00  0.00    +0.053 C 
BRANCH  62  63
ATOM     63  CG  PHE A   1      24.903  33.148  13.988  0.00  0.00    -0.020 A 
ATOM     64  CD2 PHE A   1      23.639  33.745  13.969  0.00  0.00    -0.004 A 
ATOM     65  CE2 PHE A   1      22.557  33.111  13.355  0.00  0.00    -0.000 A 
ATOM     66  CZ  PHE A   1      22.747  31.873  12.726  0.00  0.00    -0.000 A 
ATOM     67  CE1 PHE A   1      24.002  31.289  12.726  0.00  0.00    -0.000 A 
ATOM     68  CD1 PHE A   1      25.072  31.927  13.350  0.00  0.00    -0.004 A 
ENDBRANCH  62  63
ENDBRANCH  59  62
ENDBRANCH  55  59
ENDBRANCH  54  56
BRANCH  54  69
ATOM     69  CB  GLU A   2      22.553  31.791  18.882  0.00  0.00    +0.041 C 
BRANCH  69  70
ATOM     70  CG  GLU A   2      22.233  30.965  20.158  0.00  0.00    +0.116 C 
BRANCH  70  71
ATOM     71  CD  GLU A   2      21.277  29.744  19.949  0.00  0.00    +0.365 C 
ATOM     72  OE2 GLU A   2      20.976  29.019  20.962  0.00  0.00    -0.246 OA
ATOM     73  OE1 GLU A   2      20.838  29.468  18.781  0.00  0.00    -0.246 OA
ENDBRANCH  70  71
ENDBRANCH  69  70
ENDBRANCH  54  69
ENDBRANCH  50  54
ENDBRANCH  49  52
ENDBRANCH  45  49
ENDBRANCH  44  46
BRANCH  44  74
ATOM     74  CB  THR A   4      28.456  29.223  14.613  0.00  0.00    +0.137 C 
ATOM     75  CG2 THR A   4      28.185  29.035  13.136  0.00  0.00    +0.034 C 
BRANCH  74  76
ATOM     76  OG1 THR A   4      28.279  30.631  14.796  0.00  0.00    -0.382 OA
ATOM     77  HG1 THR A   4      28.940  31.120  14.245  0.00  0.00    +0.210 HD
ENDBRANCH  74  76
ENDBRANCH  44  74
ENDBRANCH  40  44
ENDBRANCH   1  41
BRANCH   1  78
ATOM     78  CB  GLU A   5      28.311  30.688  19.751  0.00  0.00    +0.041 C 
BRANCH  78  79
ATOM     79  CG  GLU A   5      29.065  31.806  19.017  0.00  0.00    +0.116 C 
BRANCH  79  80
ATOM     80  CD  GLU A   5      30.593  31.804  19.211  0.00  0.00    +0.365 C 
ATOM     81  OE2 GLU A   5      31.166  30.943  19.960  0.00  0.00    -0.246 OA
ATOM     82  OE1 GLU A   5      31.224  32.700  18.594  0.00  0.00    -0.246 OA
ENDBRANCH  79  80
ENDBRANCH  78  79
ENDBRANCH   1  78
TORSDOF 33
REMARK  Name = ../refined-set-2016/1q84/1q84_pocket.pdb
REMARK  273 active torsions:
REMARK  status: ('A' for Active; 'I' for Inactive)
REMARK    1  A    between atoms: _1  and  _3
REMARK    2  A    between atoms: _3  and  _4
REMARK    3  A    between atoms: _3  and  _6
REMARK    4  A    between atoms: _6  and  _7
REMARK    5  A    between atoms: _7  and  _8
REMARK    6  A    between atoms: _13  and  _15
REMARK    7  A    between atoms: _15  and  _16
REMARK    8  A    between atoms: _15  and  _18
REMARK    9  A    between atoms: _18  and  _19
REMARK   10  A    between atoms: _24  and  _25
REMARK   11  A    between atoms: _27  and  _29
REMARK   12  A    between atoms: _29  and  _30
REMARK   13  A    between atoms: _29  and  _32
REMARK   14  A    between atoms: _35  and  _37
REMARK   15  A    between atoms: _37  and  _38
REMARK   16  A    between atoms: _37  and  _40
REMARK   17  A    between atoms: _40  and  _41
REMARK   18  A    between atoms: _44  and  _46
REMARK   19  A    between atoms: _46  and  _47
REMARK   20  A    between atoms: _46  and  _49
REMARK   21  A    between atoms: _49  and  _50
REMARK   22  A    between atoms: _53  and  _55
REMARK   23  A    between atoms: _55  and  _56
REMARK   24  A    between atoms: _55  and  _58
REMARK   25  A    between atoms: _58  and  _59
REMARK   26  A    between atoms: _62  and  _64
REMARK   27  A    between atoms: _64  and  _65
REMARK   28  A    between atoms: _64  and  _67
REMARK   29  A    between atoms: _67  and  _68
REMARK   30  A    between atoms: _73  and  _74
REMARK   31  A    between atoms: _76  and  _78
REMARK   32  A    between atoms: _78  and  _79
REMARK   33  A    between atoms: _78  and  _81
REMARK   34  A    between atoms: _81  and  _82
REMARK   35  A    between atoms: _88  and  _90
REMARK   36  A    between atoms: _90  and  _91
REMARK   37  A    between atoms: _90  and  _93
REMARK   38  A    between atoms: _93  and  _94
REMARK   39  A    between atoms: _94  and  _95
REMARK   40  A    between atoms: _98  and  _100
REMARK   41  A    between atoms: _100  and  _101
REMARK   42  A    between atoms: _103  and  _105
REMARK   43  A    between atoms: _105  and  _106
REMARK   44  A    between atoms: _105  and  _108
REMARK   45  A    between atoms: _108  and  _109
REMARK   46  A    between atoms: _112  and  _114
REMARK   47  A    between atoms: _114  and  _115
REMARK   48  A    between atoms: _114  and  _117
REMARK   49  A    between atoms: _117  and  _118
REMARK   50  A    between atoms: _118  and  _119
REMARK   51  A    between atoms: _122  and  _124
REMARK   52  A    between atoms: _124  and  _125
REMARK   53  A    between atoms: _124  and  _127
REMARK   54  A    between atoms: _127  and  _128
REMARK   55  A    between atoms: _128  and  _129
REMARK   56  A    between atoms: _131  and  _133
REMARK   57  A    between atoms: _133  and  _134
REMARK   58  A    between atoms: _133  and  _136
REMARK   59  A    between atoms: _136  and  _137
REMARK   60  A    between atoms: _147  and  _149
REMARK   61  A    between atoms: _149  and  _150
REMARK   62  A    between atoms: _149  and  _152
REMARK   63  A    between atoms: _152  and  _153
REMARK   64  A    between atoms: _158  and  _160
REMARK   65  A    between atoms: _160  and  _161
REMARK   66  A    between atoms: _160  and  _163
REMARK   67  A    between atoms: _163  and  _164
REMARK   68  A    between atoms: _174  and  _176
REMARK   69  A    between atoms: _176  and  _177
REMARK   70  A    between atoms: _176  and  _179
REMARK   71  A    between atoms: _179  and  _180
REMARK   72  A    between atoms: _185  and  _186
REMARK   73  A    between atoms: _188  and  _190
REMARK   74  A    between atoms: _190  and  _191
REMARK   75  A    between atoms: _193  and  _195
REMARK   76  A    between atoms: _195  and  _196
REMARK   77  A    between atoms: _198  and  _200
REMARK   78  A    between atoms: _200  and  _201
REMARK   79  A    between atoms: _203  and  _205
REMARK   80  A    between atoms: _205  and  _206
REMARK   81  A    between atoms: _205  and  _208
REMARK   82  A    between atoms: _208  and  _209
REMARK   83  A    between atoms: _215  and  _217
REMARK   84  A    between atoms: _217  and  _218
REMARK   85  A    between atoms: _217  and  _220
REMARK   86  A    between atoms: _220  and  _221
REMARK   87  A    between atoms: _226  and  _227
REMARK   88  A    between atoms: _229  and  _231
REMARK   89  A    between atoms: _231  and  _232
REMARK   90  A    between atoms: _231  and  _234
REMARK   91  A    between atoms: _234  and  _235
REMARK   92  A    between atoms: _237  and  _239
REMARK   93  A    between atoms: _239  and  _240
REMARK   94  A    between atoms: _242  and  _244
REMARK   95  A    between atoms: _244  and  _245
REMARK   96  A    between atoms: _248  and  _250
REMARK   97  A    between atoms: _250  and  _251
REMARK   98  A    between atoms: _250  and  _253
REMARK   99  A    between atoms: _253  and  _254
REMARK  100  A    between atoms: _257  and  _259
REMARK  101  A    between atoms: _259  and  _260
REMARK  102  A    between atoms: _259  and  _262
REMARK  103  A    between atoms: _265  and  _267
REMARK  104  A    between atoms: _267  and  _268
REMARK  105  A    between atoms: _267  and  _270
REMARK  106  A    between atoms: _270  and  _271
REMARK  107  A    between atoms: _276  and  _277
REMARK  108  A    between atoms: _279  and  _281
REMARK  109  A    between atoms: _281  and  _282
REMARK  110  A    between atoms: _281  and  _284
REMARK  111  A    between atoms: _284  and  _285
REMARK  112  A    between atoms: _290  and  _291
REMARK  113  A    between atoms: _293  and  _295
REMARK  114  A    between atoms: _295  and  _296
REMARK  115  A    between atoms: _295  and  _298
REMARK  116  A    between atoms: _298  and  _299
REMARK  117  A    between atoms: _299  and  _300
REMARK  118  A    between atoms: _303  and  _305
REMARK  119  A    between atoms: _305  and  _306
REMARK  120  A    between atoms: _305  and  _308
REMARK  121  A    between atoms: _308  and  _309
REMARK  122  A    between atoms: _311  and  _313
REMARK  123  A    between atoms: _313  and  _314
REMARK  124  A    between atoms: _317  and  _319
REMARK  125  A    between atoms: _319  and  _320
REMARK  126  A    between atoms: _322  and  _324
REMARK  127  A    between atoms: _324  and  _325
REMARK  128  A    between atoms: _328  and  _330
REMARK  129  A    between atoms: _330  and  _331
REMARK  130  A    between atoms: _330  and  _333
REMARK  131  A    between atoms: _333  and  _334
REMARK  132  A    between atoms: _336  and  _338
REMARK  133  A    between atoms: _338  and  _339
REMARK  134  A    between atoms: _338  and  _341
REMARK  135  A    between atoms: _344  and  _346
REMARK  136  A    between atoms: _346  and  _347
REMARK  137  A    between atoms: _346  and  _349
REMARK  138  A    between atoms: _349  and  _350
REMARK  139  A    between atoms: _353  and  _355
REMARK  140  A    between atoms: _355  and  _356
REMARK  141  A    between atoms: _355  and  _358
REMARK  142  A    between atoms: _358  and  _359
REMARK  143  A    between atoms: _364  and  _366
REMARK  144  A    between atoms: _366  and  _367
REMARK  145  A    between atoms: _366  and  _369
REMARK  146  A    between atoms: _369  and  _370
REMARK  147  A    between atoms: _370  and  _371
REMARK  148  A    between atoms: _374  and  _376
REMARK  149  A    between atoms: _376  and  _377
REMARK  150  A    between atoms: _376  and  _379
REMARK  151  A    between atoms: _379  and  _380
REMARK  152  A    between atoms: _390  and  _392
REMARK  153  A    between atoms: _392  and  _393
REMARK  154  A    between atoms: _392  and  _395
REMARK  155  A    between atoms: _395  and  _396
REMARK  156  A    between atoms: _401  and  _403
REMARK  157  A    between atoms: _403  and  _404
REMARK  158  A    between atoms: _403  and  _406
REMARK  159  A    between atoms: _409  and  _411
REMARK  160  A    between atoms: _411  and  _412
REMARK  161  A    between atoms: _411  and  _414
REMARK  162  A    between atoms: _414  and  _415
REMARK  163  A    between atoms: _419  and  _420
REMARK  164  A    between atoms: _425  and  _427
REMARK  165  A    between atoms: _427  and  _428
REMARK  166  A    between atoms: _427  and  _430
REMARK  167  A    between atoms: _430  and  _431
REMARK  168  A    between atoms: _431  and  _432
REMARK  169  A    between atoms: _437  and  _439
REMARK  170  A    between atoms: _439  and  _440
REMARK  171  A    between atoms: _439  and  _442
REMARK  172  A    between atoms: _442  and  _443
REMARK  173  A    between atoms: _443  and  _444
REMARK  174  A    between atoms: _447  and  _449
REMARK  175  A    between atoms: _449  and  _450
REMARK  176  A    between atoms: _449  and  _452
REMARK  177  A    between atoms: _452  and  _453
REMARK  178  A    between atoms: _455  and  _457
REMARK  179  A    between atoms: _457  and  _458
REMARK  180  A    between atoms: _457  and  _460
REMARK  181  A    between atoms: _460  and  _461
REMARK  182  A    between atoms: _464  and  _466
REMARK  183  A    between atoms: _466  and  _467
REMARK  184  A    between atoms: _466  and  _469
REMARK  185  A    between atoms: _469  and  _470
REMARK  186  A    between atoms: _476  and  _478
REMARK  187  A    between atoms: _478  and  _479
REMARK  188  A    between atoms: _478  and  _481
REMARK  189  A    between atoms: _481  and  _482
REMARK  190  A    between atoms: _482  and  _483
REMARK  191  A    between atoms: _483  and  _484
REMARK  192  A    between atoms: _493  and  _495
REMARK  193  A    between atoms: _495  and  _496
REMARK  194  A    between atoms: _495  and  _498
REMARK  195  A    between atoms: _498  and  _499
REMARK  196  A    between atoms: _505  and  _507
REMARK  197  A    between atoms: _507  and  _508
REMARK  198  A    between atoms: _507  and  _510
REMARK  199  A    between atoms: _510  and  _511
REMARK  200  A    between atoms: _513  and  _515
REMARK  201  A    between atoms: _515  and  _516
REMARK  202  A    between atoms: _515  and  _518
REMARK  203  A    between atoms: _518  and  _519
REMARK  204  A    between atoms: _519  and  _520
REMARK  205  A    between atoms: _523  and  _525
REMARK  206  A    between atoms: _525  and  _526
REMARK  207  A    between atoms: _525  and  _528
REMARK  208  A    between atoms: _528  and  _529
REMARK  209  A    between atoms: _531  and  _533
REMARK  210  A    between atoms: _533  and  _534
REMARK  211  A    between atoms: _533  and  _536
REMARK  212  A    between atoms: _536  and  _537
REMARK  213  A    between atoms: _542  and  _543
REMARK  214  A    between atoms: _545  and  _547
REMARK  215  A    between atoms: _547  and  _548
REMARK  216  A    between atoms: _547  and  _550
REMARK  217  A    between atoms: _550  and  _551
REMARK  218  A    between atoms: _557  and  _559
REMARK  219  A    between atoms: _559  and  _560
REMARK  220  A    between atoms: _559  and  _562
REMARK  221  A    between atoms: _562  and  _563
REMARK  222  A    between atoms: _566  and  _568
REMARK  223  A    between atoms: _568  and  _569
REMARK  224  A    between atoms: _568  and  _571
REMARK  225  A    between atoms: _574  and  _576
REMARK  226  A    between atoms: _576  and  _577
REMARK  227  A    between atoms: _576  and  _579
REMARK  228  A    between atoms: _579  and  _580
REMARK  229  A    between atoms: _585  and  _586
REMARK  230  A    between atoms: _588  and  _590
REMARK  231  A    between atoms: _590  and  _591
REMARK  232  A    between atoms: _593  and  _595
REMARK  233  A    between atoms: _595  and  _596
REMARK  234  A    between atoms: _595  and  _598
REMARK  235  A    between atoms: _601  and  _603
REMARK  236  A    between atoms: _603  and  _604
REMARK  237  A    between atoms: _603  and  _606
REMARK  238  A    between atoms: _606  and  _607
REMARK  239  A    between atoms: _611  and  _612
REMARK  240  A    between atoms: _617  and  _619
REMARK  241  A    between atoms: _619  and  _620
REMARK  242  A    between atoms: _619  and  _622
REMARK  243  A    between atoms: _622  and  _623
REMARK  244  A    between atoms: _626  and  _628
REMARK  245  A    between atoms: _628  and  _629
REMARK  246  A    between atoms: _628  and  _631
REMARK  247  A    between atoms: _631  and  _632
REMARK  248  A    between atoms: _642  and  _644
REMARK  249  A    between atoms: _644  and  _645
REMARK  250  A    between atoms: _644  and  _647
REMARK  251  A    between atoms: _647  and  _648
REMARK  252  A    between atoms: _648  and  _649
REMARK  253  A    between atoms: _652  and  _653
REMARK  254  A    between atoms: _658  and  _660
REMARK  255  A    between atoms: _660  and  _661
REMARK  256  A    between atoms: _660  and  _663
REMARK  257  A    between atoms: _663  and  _664
REMARK  258  A    between atoms: _669  and  _671
REMARK  259  A    between atoms: _671  and  _672
REMARK  260  A    between atoms: _674  and  _676
REMARK  261  A    between atoms: _676  and  _677
REMARK  262  A    between atoms: _676  and  _679
REMARK  263  A    between atoms: _679  and  _680
REMARK  264  A    between atoms: _685  and  _686
REMARK  265  A    between atoms: _688  and  _690
REMARK  266  A    between atoms: _690  and  _691
REMARK  267  A    between atoms: _690  and  _693
REMARK  268  A    between atoms: _693  and  _694
REMARK  269  A    between atoms: _694  and  _695
REMARK  270  A    between atoms: _698  and  _700
REMARK  271  A    between atoms: _700  and  _701
REMARK  272  A    between atoms: _700  and  _703
REMARK  273  A    between atoms: _703  and  _704
REMARK                            x       y       z     vdW  Elec       q    Type
REMARK                         _______ _______ _______ _____ _____    ______ ____
ROOT
ATOM      1  CG  TRP A   1      25.371  12.236  23.883  0.00  0.00    -0.002 A 
ATOM      2  CD1 TRP A   1      26.174  13.346  23.917  0.00  0.00    +0.068 A 
ATOM      3  NE1 TRP A   1      26.002  14.091  22.774  0.00  0.00    -0.352 N 
ATOM      4  HE1 TRP A   1      26.501  14.975  22.546  0.00  0.00    +0.166 HD
ATOM      5  CE2 TRP A   1      25.067  13.478  21.987  0.00  0.00    +0.056 A 
ATOM      6  CZ2 TRP A   1      24.547  13.860  20.755  0.00  0.00    +0.017 A 
ATOM      7  CH2 TRP A   1      23.591  13.051  20.196  0.00  0.00    +0.001 A 
ATOM      8  CZ3 TRP A   1      23.166  11.888  20.829  0.00  0.00    +0.000 A 
ATOM      9  CE3 TRP A   1      23.680  11.512  22.059  0.00  0.00    +0.001 A 
ATOM     10  CD2 TRP A   1      24.649  12.309  22.658  0.00  0.00    +0.013 A 
ENDROOT
BRANCH   1  11
ATOM     11  CB  TRP A   1      25.222  11.198  24.957  0.00  0.00    +0.053 C 
BRANCH  11  12
ATOM     12  CA  TRP A   1      25.801   9.840  24.603  0.00  0.00    +0.137 C 
BRANCH  12  13
ATOM     13  N   TRP A   1      25.654   8.951  25.725  0.00  0.00    -0.239 NA
ATOM     14  H   TRP A   1      25.658   9.357  26.682  0.00  0.00    +0.142 HD
ENDBRANCH  12  13
BRANCH  12  15
ATOM     15  C   TRP A   1      27.258  10.045  24.146  0.00  0.00    +0.224 C 
ATOM     16  O   TRP A   1      28.154  10.257  24.949  0.00  0.00    -0.287 OA
ENDBRANCH  12  15
ENDBRANCH  11  12
ENDBRANCH   1  11
TORSDOF 4
REMARK  Name = ../refined-set-2016/1q84/1q84_pocket.pdb
REMARK  273 active torsions:
REMARK  status: ('A' for Active; 'I' for Inactive)
REMARK    1  A    between atoms: _1  and  _3
REMARK    2  A    between atoms: _3  and  _4
REMARK    3  A    between atoms: _3  and  _6
REMARK    4  A    between atoms: _6  and  _7
REMARK    5  A    between atoms: _7  and  _8
REMARK    6  A    between atoms: _13  and  _15
REMARK    7  A    between atoms: _15  and  _16
REMARK    8  A    between atoms: _15  and  _18
REMARK    9  A    between atoms: _18  and  _19
REMARK   10  A    between atoms: _24  and  _25
REMARK   11  A    between atoms: _27  and  _29
REMARK   12  A    between atoms: _29  and  _30
REMARK   13  A    between atoms: _29  and  _32
REMARK   14  A    between atoms: _35  and  _37
REMARK   15  A    between atoms: _37  and  _38
REMARK   16  A    between atoms: _37  and  _40
REMARK   17  A    between atoms: _40  and  _41
REMARK   18  A    between atoms: _44  and  _46
REMARK   19  A    between atoms: _46  and  _47
REMARK   20  A    between atoms: _46  and  _49
REMARK   21  A    between atoms: _49  and  _50
REMARK   22  A    between atoms: _53  and  _55
REMARK   23  A    between atoms: _55  and  _56
REMARK   24  A    between atoms: _55  and  _58
REMARK   25  A    between atoms: _58  and  _59
REMARK   26  A    between atoms: _62  and  _64
REMARK   27  A    between atoms: _64  and  _65
REMARK   28  A    between atoms: _64  and  _67
REMARK   29  A    between atoms: _67  and  _68
REMARK   30  A    between atoms: _73  and  _74
REMARK   31  A    between atoms: _76  and  _78
REMARK   32  A    between atoms: _78  and  _79
REMARK   33  A    between atoms: _78  and  _81
REMARK   34  A    between atoms: _81  and  _82
REMARK   35  A    between atoms: _88  and  _90
REMARK   36  A    between atoms: _90  and  _91
REMARK   37  A    between atoms: _90  and  _93
REMARK   38  A    between atoms: _93  and  _94
REMARK   39  A    between atoms: _94  and  _95
REMARK   40  A    between atoms: _98  and  _100
REMARK   41  A    between atoms: _100  and  _101
REMARK   42  A    between atoms: _103  and  _105
REMARK   43  A    between atoms: _105  and  _106
REMARK   44  A    between atoms: _105  and  _108
REMARK   45  A    between atoms: _108  and  _109
REMARK   46  A    between atoms: _112  and  _114
REMARK   47  A    between atoms: _114  and  _115
REMARK   48  A    between atoms: _114  and  _117
REMARK   49  A    between atoms: _117  and  _118
REMARK   50  A    between atoms: _118  and  _119
REMARK   51  A    between atoms: _122  and  _124
REMARK   52  A    between atoms: _124  and  _125
REMARK   53  A    between atoms: _124  and  _127
REMARK   54  A    between atoms: _127  and  _128
REMARK   55  A    between atoms: _128  and  _129
REMARK   56  A    between atoms: _131  and  _133
REMARK   57  A    between atoms: _133  and  _134
REMARK   58  A    between atoms: _133  and  _136
REMARK   59  A    between atoms: _136  and  _137
REMARK   60  A    between atoms: _147  and  _149
REMARK   61  A    between atoms: _149  and  _150
REMARK   62  A    between atoms: _149  and  _152
REMARK   63  A    between atoms: _152  and  _153
REMARK   64  A    between atoms: _158  and  _160
REMARK   65  A    between atoms: _160  and  _161
REMARK   66  A    between atoms: _160  and  _163
REMARK   67  A    between atoms: _163  and  _164
REMARK   68  A    between atoms: _174  and  _176
REMARK   69  A    between atoms: _176  and  _177
REMARK   70  A    between atoms: _176  and  _179
REMARK   71  A    between atoms: _179  and  _180
REMARK   72  A    between atoms: _185  and  _186
REMARK   73  A    between atoms: _188  and  _190
REMARK   74  A    between atoms: _190  and  _191
REMARK   75  A    between atoms: _193  and  _195
REMARK   76  A    between atoms: _195  and  _196
REMARK   77  A    between atoms: _198  and  _200
REMARK   78  A    between atoms: _200  and  _201
REMARK   79  A    between atoms: _203  and  _205
REMARK   80  A    between atoms: _205  and  _206
REMARK   81  A    between atoms: _205  and  _208
REMARK   82  A    between atoms: _208  and  _209
REMARK   83  A    between atoms: _215  and  _217
REMARK   84  A    between atoms: _217  and  _218
REMARK   85  A    between atoms: _217  and  _220
REMARK   86  A    between atoms: _220  and  _221
REMARK   87  A    between atoms: _226  and  _227
REMARK   88  A    between atoms: _229  and  _231
REMARK   89  A    between atoms: _231  and  _232
REMARK   90  A    between atoms: _231  and  _234
REMARK   91  A    between atoms: _234  and  _235
REMARK   92  A    between atoms: _237  and  _239
REMARK   93  A    between atoms: _239  and  _240
REMARK   94  A    between atoms: _242  and  _244
REMARK   95  A    between atoms: _244  and  _245
REMARK   96  A    between atoms: _248  and  _250
REMARK   97  A    between atoms: _250  and  _251
REMARK   98  A    between atoms: _250  and  _253
REMARK   99  A    between atoms: _253  and  _254
REMARK  100  A    between atoms: _257  and  _259
REMARK  101  A    between atoms: _259  and  _260
REMARK  102  A    between atoms: _259  and  _262
REMARK  103  A    between atoms: _265  and  _267
REMARK  104  A    between atoms: _267  and  _268
REMARK  105  A    between atoms: _267  and  _270
REMARK  106  A    between atoms: _270  and  _271
REMARK  107  A    between atoms: _276  and  _277
REMARK  108  A    between atoms: _279  and  _281
REMARK  109  A    between atoms: _281  and  _282
REMARK  110  A    between atoms: _281  and  _284
REMARK  111  A    between atoms: _284  and  _285
REMARK  112  A    between atoms: _290  and  _291
REMARK  113  A    between atoms: _293  and  _295
REMARK  114  A    between atoms: _295  and  _296
REMARK  115  A    between atoms: _295  and  _298
REMARK  116  A    between atoms: _298  and  _299
REMARK  117  A    between atoms: _299  and  _300
REMARK  118  A    between atoms: _303  and  _305
REMARK  119  A    between atoms: _305  and  _306
REMARK  120  A    between atoms: _305  and  _308
REMARK  121  A    between atoms: _308  and  _309
REMARK  122  A    between atoms: _311  and  _313
REMARK  123  A    between atoms: _313  and  _314
REMARK  124  A    between atoms: _317  and  _319
REMARK  125  A    between atoms: _319  and  _320
REMARK  126  A    between atoms: _322  and  _324
REMARK  127  A    between atoms: _324  and  _325
REMARK  128  A    between atoms: _328  and  _330
REMARK  129  A    between atoms: _330  and  _331
REMARK  130  A    between atoms: _330  and  _333
REMARK  131  A    between atoms: _333  and  _334
REMARK  132  A    between atoms: _336  and  _338
REMARK  133  A    between atoms: _338  and  _339
REMARK  134  A    between atoms: _338  and  _341
REMARK  135  A    between atoms: _344  and  _346
REMARK  136  A    between atoms: _346  and  _347
REMARK  137  A    between atoms: _346  and  _349
REMARK  138  A    between atoms: _349  and  _350
REMARK  139  A    between atoms: _353  and  _355
REMARK  140  A    between atoms: _355  and  _356
REMARK  141  A    between atoms: _355  and  _358
REMARK  142  A    between atoms: _358  and  _359
REMARK  143  A    between atoms: _364  and  _366
REMARK  144  A    between atoms: _366  and  _367
REMARK  145  A    between atoms: _366  and  _369
REMARK  146  A    between atoms: _369  and  _370
REMARK  147  A    between atoms: _370  and  _371
REMARK  148  A    between atoms: _374  and  _376
REMARK  149  A    between atoms: _376  and  _377
REMARK  150  A    between atoms: _376  and  _379
REMARK  151  A    between atoms: _379  and  _380
REMARK  152  A    between atoms: _390  and  _392
REMARK  153  A    between atoms: _392  and  _393
REMARK  154  A    between atoms: _392  and  _395
REMARK  155  A    between atoms: _395  and  _396
REMARK  156  A    between atoms: _401  and  _403
REMARK  157  A    between atoms: _403  and  _404
REMARK  158  A    between atoms: _403  and  _406
REMARK  159  A    between atoms: _409  and  _411
REMARK  160  A    between atoms: _411  and  _412
REMARK  161  A    between atoms: _411  and  _414
REMARK  162  A    between atoms: _414  and  _415
REMARK  163  A    between atoms: _419  and  _420
REMARK  164  A    between atoms: _425  and  _427
REMARK  165  A    between atoms: _427  and  _428
REMARK  166  A    between atoms: _427  and  _430
REMARK  167  A    between atoms: _430  and  _431
REMARK  168  A    between atoms: _431  and  _432
REMARK  169  A    between atoms: _437  and  _439
REMARK  170  A    between atoms: _439  and  _440
REMARK  171  A    between atoms: _439  and  _442
REMARK  172  A    between atoms: _442  and  _443
REMARK  173  A    between atoms: _443  and  _444
REMARK  174  A    between atoms: _447  and  _449
REMARK  175  A    between atoms: _449  and  _450
REMARK  176  A    between atoms: _449  and  _452
REMARK  177  A    between atoms: _452  and  _453
REMARK  178  A    between atoms: _455  and  _457
REMARK  179  A    between atoms: _457  and  _458
REMARK  180  A    between atoms: _457  and  _460
REMARK  181  A    between atoms: _460  and  _461
REMARK  182  A    between atoms: _464  and  _466
REMARK  183  A    between atoms: _466  and  _467
REMARK  184  A    between atoms: _466  and  _469
REMARK  185  A    between atoms: _469  and  _470
REMARK  186  A    between atoms: _476  and  _478
REMARK  187  A    between atoms: _478  and  _479
REMARK  188  A    between atoms: _478  and  _481
REMARK  189  A    between atoms: _481  and  _482
REMARK  190  A    between atoms: _482  and  _483
REMARK  191  A    between atoms: _483  and  _484
REMARK  192  A    between atoms: _493  and  _495
REMARK  193  A    between atoms: _495  and  _496
REMARK  194  A    between atoms: _495  and  _498
REMARK  195  A    between atoms: _498  and  _499
REMARK  196  A    between atoms: _505  and  _507
REMARK  197  A    between atoms: _507  and  _508
REMARK  198  A    between atoms: _507  and  _510
REMARK  199  A    between atoms: _510  and  _511
REMARK  200  A    between atoms: _513  and  _515
REMARK  201  A    between atoms: _515  and  _516
REMARK  202  A    between atoms: _515  and  _518
REMARK  203  A    between atoms: _518  and  _519
REMARK  204  A    between atoms: _519  and  _520
REMARK  205  A    between atoms: _523  and  _525
REMARK  206  A    between atoms: _525  and  _526
REMARK  207  A    between atoms: _525  and  _528
REMARK  208  A    between atoms: _528  and  _529
REMARK  209  A    between atoms: _531  and  _533
REMARK  210  A    between atoms: _533  and  _534
REMARK  211  A    between atoms: _533  and  _536
REMARK  212  A    between atoms: _536  and  _537
REMARK  213  A    between atoms: _542  and  _543
REMARK  214  A    between atoms: _545  and  _547
REMARK  215  A    between atoms: _547  and  _548
REMARK  216  A    between atoms: _547  and  _550
REMARK  217  A    between atoms: _550  and  _551
REMARK  218  A    between atoms: _557  and  _559
REMARK  219  A    between atoms: _559  and  _560
REMARK  220  A    between atoms: _559  and  _562
REMARK  221  A    between atoms: _562  and  _563
REMARK  222  A    between atoms: _566  and  _568
REMARK  223  A    between atoms: _568  and  _569
REMARK  224  A    between atoms: _568  and  _571
REMARK  225  A    between atoms: _574  and  _576
REMARK  226  A    between atoms: _576  and  _577
REMARK  227  A    between atoms: _576  and  _579
REMARK  228  A    between atoms: _579  and  _580
REMARK  229  A    between atoms: _585  and  _586
REMARK  230  A    between atoms: _588  and  _590
REMARK  231  A    between atoms: _590  and  _591
REMARK  232  A    between atoms: _593  and  _595
REMARK  233  A    between atoms: _595  and  _596
REMARK  234  A    between atoms: _595  and  _598
REMARK  235  A    between atoms: _601  and  _603
REMARK  236  A    between atoms: _603  and  _604
REMARK  237  A    between atoms: _603  and  _606
REMARK  238  A    between atoms: _606  and  _607
REMARK  239  A    between atoms: _611  and  _612
REMARK  240  A    between atoms: _617  and  _619
REMARK  241  A    between atoms: _619  and  _620
REMARK  242  A    between atoms: _619  and  _622
REMARK  243  A    between atoms: _622  and  _623
REMARK  244  A    between atoms: _626  and  _628
REMARK  245  A    between atoms: _628  and  _629
REMARK  246  A    between atoms: _628  and  _631
REMARK  247  A    between atoms: _631  and  _632
REMARK  248  A    between atoms: _642  and  _644
REMARK  249  A    between atoms: _644  and  _645
REMARK  250  A    between atoms: _644  and  _647
REMARK  251  A    between atoms: _647  and  _648
REMARK  252  A    between atoms: _648  and  _649
REMARK  253  A    between atoms: _652  and  _653
REMARK  254  A    between atoms: _658  and  _660
REMARK  255  A    between atoms: _660  and  _661
REMARK  256  A    between atoms: _660  and  _663
REMARK  257  A    between atoms: _663  and  _664
REMARK  258  A    between atoms: _669  and  _671
REMARK  259  A    between atoms: _671  and  _672
REMARK  260  A    between atoms: _674  and  _676
REMARK  261  A    between atoms: _676  and  _677
REMARK  262  A    between atoms: _676  and  _679
REMARK  263  A    between atoms: _679  and  _680
REMARK  264  A    between atoms: _685  and  _686
REMARK  265  A    between atoms: _688  and  _690
REMARK  266  A    between atoms: _690  and  _691
REMARK  267  A    between atoms: _690  and  _693
REMARK  268  A    between atoms: _693  and  _694
REMARK  269  A    between atoms: _694  and  _695
REMARK  270  A    between atoms: _698  and  _700
REMARK  271  A    between atoms: _700  and  _701
REMARK  272  A    between atoms: _700  and  _703
REMARK  273  A    between atoms: _703  and  _704
REMARK                            x       y       z     vdW  Elec       q    Type
REMARK                         _______ _______ _______ _____ _____    ______ ____
ROOT
ATOM      1  CA  PHE A   5      36.020  13.967  15.027  0.00  0.00    +0.153 C 
ENDROOT
BRANCH   1   3
ATOM      2  C   GLY A   4      34.848  15.001  13.140  0.00  0.00    +0.243 C 
ATOM      3  N   PHE A   5      34.849  14.485  14.374  0.00  0.00    -0.297 N 
ATOM      4  H   PHE A   5      33.948  14.457  14.892  0.00  0.00    +0.150 HD
ATOM      5  O   GLY A   4      35.829  15.018  12.411  0.00  0.00    -0.273 OA
BRANCH   2   6
ATOM      6  CA  GLY A   4      33.534  15.620  12.667  0.00  0.00    +0.176 C 
BRANCH   6   9
ATOM      7  C   GLY A   3      32.867  16.946  14.602  0.00  0.00    +0.243 C 
ATOM      8  O   GLY A   3      34.003  17.439  14.720  0.00  0.00    -0.273 OA
ATOM      9  N   GLY A   4      32.589  16.004  13.710  0.00  0.00    -0.295 N 
ATOM     10  H   GLY A   4      31.668  15.524  13.756  0.00  0.00    +0.150 HD
BRANCH   7  11
ATOM     11  CA  GLY A   3      31.717  17.387  15.516  0.00  0.00    +0.176 C 
BRANCH  11  14
ATOM     12  C   GLY A   2      30.461  15.888  17.033  0.00  0.00    +0.243 C 
ATOM     13  O   GLY A   2      30.763  16.530  18.055  0.00  0.00    -0.273 OA
ATOM     14  N   GLY A   3      30.769  16.293  15.803  0.00  0.00    -0.295 N 
ATOM     15  H   GLY A   3      30.316  15.812  15.000  0.00  0.00    +0.150 HD
BRANCH  12  16
ATOM     16  CA  GLY A   2      29.689  14.586  17.105  0.00  0.00    +0.176 C 
BRANCH  16  19
ATOM     17  C   TYR A   1      29.568  13.610  19.349  0.00  0.00    +0.239 C 
ATOM     18  O   TYR A   1      30.582  12.862  19.207  0.00  0.00    -0.274 OA
ATOM     19  N   GLY A   2      29.051  14.381  18.395  0.00  0.00    -0.296 N 
ATOM     20  H   GLY A   2      28.147  14.860  18.582  0.00  0.00    +0.150 HD
BRANCH  17  21
ATOM     21  CA  TYR A   1      28.842  13.752  20.680  0.00  0.00    +0.149 C 
BRANCH  21  22
ATOM     22  N   TYR A   1      29.008  12.597  21.537  0.00  0.00    -0.238 NA
ATOM     23  H   TYR A   1      29.545  12.691  22.423  0.00  0.00    +0.142 HD
ENDBRANCH  21  22
BRANCH  21  24
ATOM     24  CB  TYR A   1      29.334  15.018  21.357  0.00  0.00    +0.053 C 
BRANCH  24  25
ATOM     25  CG  TYR A   1      30.808  15.021  21.769  0.00  0.00    -0.020 A 
ATOM     26  CD2 TYR A   1      31.156  14.876  23.107  0.00  0.00    -0.001 A 
ATOM     27  CE2 TYR A   1      32.469  14.906  23.509  0.00  0.00    +0.036 A 
ATOM     28  CZ  TYR A   1      33.511  15.106  22.587  0.00  0.00    +0.134 A 
ATOM     29  CE1 TYR A   1      33.222  15.264  21.245  0.00  0.00    +0.036 A 
ATOM     30  CD1 TYR A   1      31.833  15.240  20.841  0.00  0.00    -0.001 A 
BRANCH  28  31
ATOM     31  OH  TYR A   1      34.786  15.107  23.071  0.00  0.00    -0.506 OA
ATOM     32  HH  TYR A   1      34.883  15.831  23.739  0.00  0.00    +0.292 HD
ENDBRANCH  28  31
ENDBRANCH  24  25
ENDBRANCH  21  24
ENDBRANCH  17  21
ENDBRANCH  16  19
ENDBRANCH  12  16
ENDBRANCH  11  14
ENDBRANCH   7  11
ENDBRANCH   6   9
ENDBRANCH   2   6
ENDBRANCH   1   3
BRANCH   1  33
ATOM     33  C   PHE A   5      37.127  14.997  15.326  0.00  0.00    +0.241 C 
ATOM     34  O   PHE A   5      38.218  14.605  15.730  0.00  0.00    -0.273 OA
ATOM     35  N   TYR A   6      36.826  16.289  15.152  0.00  0.00    -0.297 N 
ATOM     36  H   TYR A   6      35.851  16.519  14.871  0.00  0.00    +0.150 HD
BRANCH  35  37
ATOM     37  CA  TYR A   6      37.763  17.413  15.326  0.00  0.00    +0.153 C 
BRANCH  37  38
ATOM     38  C   TYR A   6      37.267  18.397  16.411  0.00  0.00    +0.241 C 
ATOM     39  N   SER A   7      36.044  18.196  16.879  0.00  0.00    -0.295 N 
ATOM     40  H   SER A   7      35.517  17.357  16.562  0.00  0.00    +0.150 HD
ATOM     41  O   TYR A   6      37.985  19.294  16.816  0.00  0.00    -0.273 OA
BRANCH  39  42
ATOM     42  CA  SER A   7      35.415  19.103  17.817  0.00  0.00    +0.178 C 
BRANCH  42  43
ATOM     43  C   SER A   7      34.304  18.398  18.595  0.00  0.00    +0.243 C 
ATOM     44  N   GLY A   8      33.715  19.154  19.501  0.00  0.00    -0.295 N 
ATOM     45  H   GLY A   8      34.032  20.138  19.610  0.00  0.00    +0.150 HD
ATOM     46  O   SER A   7      33.967  17.239  18.342  0.00  0.00    -0.273 OA
BRANCH  44  47
ATOM     47  CA  GLY A   8      32.656  18.678  20.343  0.00  0.00    +0.176 C 
BRANCH  47  48
ATOM     48  C   GLY A   8      33.054  18.651  21.804  0.00  0.00    +0.243 C 
ATOM     49  N   ALA A   9      32.043  18.499  22.629  0.00  0.00    -0.298 N 
ATOM     50  H   ALA A   9      31.086  18.432  22.228  0.00  0.00    +0.150 HD
ATOM     51  O   GLY A   8      34.216  18.768  22.166  0.00  0.00    -0.273 OA
BRANCH  49  52
ATOM     52  CA  ALA A   9      32.191  18.420  24.067  0.00  0.00    +0.137 C 
ATOM     53  CB  ALA A   9      32.516  19.808  24.635  0.00  0.00    +0.030 C 
BRANCH  52  54
ATOM     54  C   ALA A   9      30.882  17.877  24.676  0.00  0.00    +0.227 C 
ATOM     55  O   ALA A   9      29.827  18.133  24.158  0.00  0.00    -0.286 OA
ENDBRANCH  52  54
ENDBRANCH  49  52
ENDBRANCH  47  48
ENDBRANCH  44  47
ENDBRANCH  42  43
BRANCH  42  56
ATOM     56  CB  SER A   7      34.762  20.274  17.058  0.00  0.00    +0.166 C 
BRANCH  56  57
ATOM     57  OG  SER A   7      33.841  19.762  16.101  0.00  0.00    -0.380 OA
ATOM     58  H   SER A   7      34.322  19.179  15.461  0.00  0.00    +0.211 HD
ENDBRANCH  56  57
ENDBRANCH  42  56
ENDBRANCH  39  42
ENDBRANCH  37  38
BRANCH  37  59
ATOM     59  CB  TYR A   6      38.007  18.154  13.973  0.00  0.00    +0.055 C 
BRANCH  59  60
ATOM     60  CG  TYR A   6      37.022  19.234  13.633  0.00  0.00    -0.020 A 
ATOM     61  CD2 TYR A   6      37.175  20.524  14.125  0.00  0.00    -0.001 A 
ATOM     62  CE2 TYR A   6      36.272  21.543  13.825  0.00  0.00    +0.036 A 
ATOM     63  CZ  TYR A   6      35.168  21.273  13.059  0.00  0.00    +0.134 A 
ATOM     64  CE1 TYR A   6      34.966  19.998  12.550  0.00  0.00    +0.036 A 
ATOM     65  CD1 TYR A   6      35.908  18.974  12.843  0.00  0.00    -0.001 A 
BRANCH  63  66
ATOM     66  OH  TYR A   6      34.277  22.292  12.788  0.00  0.00    -0.506 OA
ATOM     67  HH  TYR A   6      33.381  22.045  13.129  0.00  0.00    +0.292 HD
ENDBRANCH  63  66
ENDBRANCH  59  60
ENDBRANCH  37  59
ENDBRANCH  35  37
ENDBRANCH   1  33
BRANCH   1  68
ATOM     68  CB  PHE A   5      36.561  12.833  14.182  0.00  0.00    +0.055 C 
BRANCH  68  69
ATOM     69  CG  PHE A   5      35.715  11.606  14.198  0.00  0.00    -0.020 A 
ATOM     70  CD2 PHE A   5      35.590  10.859  15.362  0.00  0.00    -0.004 A 
ATOM     71  CE2 PHE A   5      34.821   9.703  15.379  0.00  0.00    -0.000 A 
ATOM     72  CZ  PHE A   5      34.214   9.256  14.205  0.00  0.00    -0.000 A 
ATOM     73  CE1 PHE A   5      34.367   9.976  13.038  0.00  0.00    -0.000 A 
ATOM     74  CD1 PHE A   5      35.106  11.157  13.041  0.00  0.00    -0.004 A 
ENDBRANCH  68  69
ENDBRANCH   1  68
TORSDOF 28
REMARK  Name = ../refined-set-2016/1q84/1q84_pocket.pdb
REMARK  273 active torsions:
REMARK  status: ('A' for Active; 'I' for Inactive)
REMARK    1  A    between atoms: _1  and  _3
REMARK    2  A    between atoms: _3  and  _4
REMARK    3  A    between atoms: _3  and  _6
REMARK    4  A    between atoms: _6  and  _7
REMARK    5  A    between atoms: _7  and  _8
REMARK    6  A    between atoms: _13  and  _15
REMARK    7  A    between atoms: _15  and  _16
REMARK    8  A    between atoms: _15  and  _18
REMARK    9  A    between atoms: _18  and  _19
REMARK   10  A    between atoms: _24  and  _25
REMARK   11  A    between atoms: _27  and  _29
REMARK   12  A    between atoms: _29  and  _30
REMARK   13  A    between atoms: _29  and  _32
REMARK   14  A    between atoms: _35  and  _37
REMARK   15  A    between atoms: _37  and  _38
REMARK   16  A    between atoms: _37  and  _40
REMARK   17  A    between atoms: _40  and  _41
REMARK   18  A    between atoms: _44  and  _46
REMARK   19  A    between atoms: _46  and  _47
REMARK   20  A    between atoms: _46  and  _49
REMARK   21  A    between atoms: _49  and  _50
REMARK   22  A    between atoms: _53  and  _55
REMARK   23  A    between atoms: _55  and  _56
REMARK   24  A    between atoms: _55  and  _58
REMARK   25  A    between atoms: _58  and  _59
REMARK   26  A    between atoms: _62  and  _64
REMARK   27  A    between atoms: _64  and  _65
REMARK   28  A    between atoms: _64  and  _67
REMARK   29  A    between atoms: _67  and  _68
REMARK   30  A    between atoms: _73  and  _74
REMARK   31  A    between atoms: _76  and  _78
REMARK   32  A    between atoms: _78  and  _79
REMARK   33  A    between atoms: _78  and  _81
REMARK   34  A    between atoms: _81  and  _82
REMARK   35  A    between atoms: _88  and  _90
REMARK   36  A    between atoms: _90  and  _91
REMARK   37  A    between atoms: _90  and  _93
REMARK   38  A    between atoms: _93  and  _94
REMARK   39  A    between atoms: _94  and  _95
REMARK   40  A    between atoms: _98  and  _100
REMARK   41  A    between atoms: _100  and  _101
REMARK   42  A    between atoms: _103  and  _105
REMARK   43  A    between atoms: _105  and  _106
REMARK   44  A    between atoms: _105  and  _108
REMARK   45  A    between atoms: _108  and  _109
REMARK   46  A    between atoms: _112  and  _114
REMARK   47  A    between atoms: _114  and  _115
REMARK   48  A    between atoms: _114  and  _117
REMARK   49  A    between atoms: _117  and  _118
REMARK   50  A    between atoms: _118  and  _119
REMARK   51  A    between atoms: _122  and  _124
REMARK   52  A    between atoms: _124  and  _125
REMARK   53  A    between atoms: _124  and  _127
REMARK   54  A    between atoms: _127  and  _128
REMARK   55  A    between atoms: _128  and  _129
REMARK   56  A    between atoms: _131  and  _133
REMARK   57  A    between atoms: _133  and  _134
REMARK   58  A    between atoms: _133  and  _136
REMARK   59  A    between atoms: _136  and  _137
REMARK   60  A    between atoms: _147  and  _149
REMARK   61  A    between atoms: _149  and  _150
REMARK   62  A    between atoms: _149  and  _152
REMARK   63  A    between atoms: _152  and  _153
REMARK   64  A    between atoms: _158  and  _160
REMARK   65  A    between atoms: _160  and  _161
REMARK   66  A    between atoms: _160  and  _163
REMARK   67  A    between atoms: _163  and  _164
REMARK   68  A    between atoms: _174  and  _176
REMARK   69  A    between atoms: _176  and  _177
REMARK   70  A    between atoms: _176  and  _179
REMARK   71  A    between atoms: _179  and  _180
REMARK   72  A    between atoms: _185  and  _186
REMARK   73  A    between atoms: _188  and  _190
REMARK   74  A    between atoms: _190  and  _191
REMARK   75  A    between atoms: _193  and  _195
REMARK   76  A    between atoms: _195  and  _196
REMARK   77  A    between atoms: _198  and  _200
REMARK   78  A    between atoms: _200  and  _201
REMARK   79  A    between atoms: _203  and  _205
REMARK   80  A    between atoms: _205  and  _206
REMARK   81  A    between atoms: _205  and  _208
REMARK   82  A    between atoms: _208  and  _209
REMARK   83  A    between atoms: _215  and  _217
REMARK   84  A    between atoms: _217  and  _218
REMARK   85  A    between atoms: _217  and  _220
REMARK   86  A    between atoms: _220  and  _221
REMARK   87  A    between atoms: _226  and  _227
REMARK   88  A    between atoms: _229  and  _231
REMARK   89  A    between atoms: _231  and  _232
REMARK   90  A    between atoms: _231  and  _234
REMARK   91  A    between atoms: _234  and  _235
REMARK   92  A    between atoms: _237  and  _239
REMARK   93  A    between atoms: _239  and  _240
REMARK   94  A    between atoms: _242  and  _244
REMARK   95  A    between atoms: _244  and  _245
REMARK   96  A    between atoms: _248  and  _250
REMARK   97  A    between atoms: _250  and  _251
REMARK   98  A    between atoms: _250  and  _253
REMARK   99  A    between atoms: _253  and  _254
REMARK  100  A    between atoms: _257  and  _259
REMARK  101  A    between atoms: _259  and  _260
REMARK  102  A    between atoms: _259  and  _262
REMARK  103  A    between atoms: _265  and  _267
REMARK  104  A    between atoms: _267  and  _268
REMARK  105  A    between atoms: _267  and  _270
REMARK  106  A    between atoms: _270  and  _271
REMARK  107  A    between atoms: _276  and  _277
REMARK  108  A    between atoms: _279  and  _281
REMARK  109  A    between atoms: _281  and  _282
REMARK  110  A    between atoms: _281  and  _284
REMARK  111  A    between atoms: _284  and  _285
REMARK  112  A    between atoms: _290  and  _291
REMARK  113  A    between atoms: _293  and  _295
REMARK  114  A    between atoms: _295  and  _296
REMARK  115  A    between atoms: _295  and  _298
REMARK  116  A    between atoms: _298  and  _299
REMARK  117  A    between atoms: _299  and  _300
REMARK  118  A    between atoms: _303  and  _305
REMARK  119  A    between atoms: _305  and  _306
REMARK  120  A    between atoms: _305  and  _308
REMARK  121  A    between atoms: _308  and  _309
REMARK  122  A    between atoms: _311  and  _313
REMARK  123  A    between atoms: _313  and  _314
REMARK  124  A    between atoms: _317  and  _319
REMARK  125  A    between atoms: _319  and  _320
REMARK  126  A    between atoms: _322  and  _324
REMARK  127  A    between atoms: _324  and  _325
REMARK  128  A    between atoms: _328  and  _330
REMARK  129  A    between atoms: _330  and  _331
REMARK  130  A    between atoms: _330  and  _333
REMARK  131  A    between atoms: _333  and  _334
REMARK  132  A    between atoms: _336  and  _338
REMARK  133  A    between atoms: _338  and  _339
REMARK  134  A    between atoms: _338  and  _341
REMARK  135  A    between atoms: _344  and  _346
REMARK  136  A    between atoms: _346  and  _347
REMARK  137  A    between atoms: _346  and  _349
REMARK  138  A    between atoms: _349  and  _350
REMARK  139  A    between atoms: _353  and  _355
REMARK  140  A    between atoms: _355  and  _356
REMARK  141  A    between atoms: _355  and  _358
REMARK  142  A    between atoms: _358  and  _359
REMARK  143  A    between atoms: _364  and  _366
REMARK  144  A    between atoms: _366  and  _367
REMARK  145  A    between atoms: _366  and  _369
REMARK  146  A    between atoms: _369  and  _370
REMARK  147  A    between atoms: _370  and  _371
REMARK  148  A    between atoms: _374  and  _376
REMARK  149  A    between atoms: _376  and  _377
REMARK  150  A    between atoms: _376  and  _379
REMARK  151  A    between atoms: _379  and  _380
REMARK  152  A    between atoms: _390  and  _392
REMARK  153  A    between atoms: _392  and  _393
REMARK  154  A    between atoms: _392  and  _395
REMARK  155  A    between atoms: _395  and  _396
REMARK  156  A    between atoms: _401  and  _403
REMARK  157  A    between atoms: _403  and  _404
REMARK  158  A    between atoms: _403  and  _406
REMARK  159  A    between atoms: _409  and  _411
REMARK  160  A    between atoms: _411  and  _412
REMARK  161  A    between atoms: _411  and  _414
REMARK  162  A    between atoms: _414  and  _415
REMARK  163  A    between atoms: _419  and  _420
REMARK  164  A    between atoms: _425  and  _427
REMARK  165  A    between atoms: _427  and  _428
REMARK  166  A    between atoms: _427  and  _430
REMARK  167  A    between atoms: _430  and  _431
REMARK  168  A    between atoms: _431  and  _432
REMARK  169  A    between atoms: _437  and  _439
REMARK  170  A    between atoms: _439  and  _440
REMARK  171  A    between atoms: _439  and  _442
REMARK  172  A    between atoms: _442  and  _443
REMARK  173  A    between atoms: _443  and  _444
REMARK  174  A    between atoms: _447  and  _449
REMARK  175  A    between atoms: _449  and  _450
REMARK  176  A    between atoms: _449  and  _452
REMARK  177  A    between atoms: _452  and  _453
REMARK  178  A    between atoms: _455  and  _457
REMARK  179  A    between atoms: _457  and  _458
REMARK  180  A    between atoms: _457  and  _460
REMARK  181  A    between atoms: _460  and  _461
REMARK  182  A    between atoms: _464  and  _466
REMARK  183  A    between atoms: _466  and  _467
REMARK  184  A    between atoms: _466  and  _469
REMARK  185  A    between atoms: _469  and  _470
REMARK  186  A    between atoms: _476  and  _478
REMARK  187  A    between atoms: _478  and  _479
REMARK  188  A    between atoms: _478  and  _481
REMARK  189  A    between atoms: _481  and  _482
REMARK  190  A    between atoms: _482  and  _483
REMARK  191  A    between atoms: _483  and  _484
REMARK  192  A    between atoms: _493  and  _495
REMARK  193  A    between atoms: _495  and  _496
REMARK  194  A    between atoms: _495  and  _498
REMARK  195  A    between atoms: _498  and  _499
REMARK  196  A    between atoms: _505  and  _507
REMARK  197  A    between atoms: _507  and  _508
REMARK  198  A    between atoms: _507  and  _510
REMARK  199  A    between atoms: _510  and  _511
REMARK  200  A    between atoms: _513  and  _515
REMARK  201  A    between atoms: _515  and  _516
REMARK  202  A    between atoms: _515  and  _518
REMARK  203  A    between atoms: _518  and  _519
REMARK  204  A    between atoms: _519  and  _520
REMARK  205  A    between atoms: _523  and  _525
REMARK  206  A    between atoms: _525  and  _526
REMARK  207  A    between atoms: _525  and  _528
REMARK  208  A    between atoms: _528  and  _529
REMARK  209  A    between atoms: _531  and  _533
REMARK  210  A    between atoms: _533  and  _534
REMARK  211  A    between atoms: _533  and  _536
REMARK  212  A    between atoms: _536  and  _537
REMARK  213  A    between atoms: _542  and  _543
REMARK  214  A    between atoms: _545  and  _547
REMARK  215  A    between atoms: _547  and  _548
REMARK  216  A    between atoms: _547  and  _550
REMARK  217  A    between atoms: _550  and  _551
REMARK  218  A    between atoms: _557  and  _559
REMARK  219  A    between atoms: _559  and  _560
REMARK  220  A    between atoms: _559  and  _562
REMARK  221  A    between atoms: _562  and  _563
REMARK  222  A    between atoms: _566  and  _568
REMARK  223  A    between atoms: _568  and  _569
REMARK  224  A    between atoms: _568  and  _571
REMARK  225  A    between atoms: _574  and  _576
REMARK  226  A    between atoms: _576  and  _577
REMARK  227  A    between atoms: _576  and  _579
REMARK  228  A    between atoms: _579  and  _580
REMARK  229  A    between atoms: _585  and  _586
REMARK  230  A    between atoms: _588  and  _590
REMARK  231  A    between atoms: _590  and  _591
REMARK  232  A    between atoms: _593  and  _595
REMARK  233  A    between atoms: _595  and  _596
REMARK  234  A    between atoms: _595  and  _598
REMARK  235  A    between atoms: _601  and  _603
REMARK  236  A    between atoms: _603  and  _604
REMARK  237  A    between atoms: _603  and  _606
REMARK  238  A    between atoms: _606  and  _607
REMARK  239  A    between atoms: _611  and  _612
REMARK  240  A    between atoms: _617  and  _619
REMARK  241  A    between atoms: _619  and  _620
REMARK  242  A    between atoms: _619  and  _622
REMARK  243  A    between atoms: _622  and  _623
REMARK  244  A    between atoms: _626  and  _628
REMARK  245  A    between atoms: _628  and  _629
REMARK  246  A    between atoms: _628  and  _631
REMARK  247  A    between atoms: _631  and  _632
REMARK  248  A    between atoms: _642  and  _644
REMARK  249  A    between atoms: _644  and  _645
REMARK  250  A    between atoms: _644  and  _647
REMARK  251  A    between atoms: _647  and  _648
REMARK  252  A    between atoms: _648  and  _649
REMARK  253  A    between atoms: _652  and  _653
REMARK  254  A    between atoms: _658  and  _660
REMARK  255  A    between atoms: _660  and  _661
REMARK  256  A    between atoms: _660  and  _663
REMARK  257  A    between atoms: _663  and  _664
REMARK  258  A    between atoms: _669  and  _671
REMARK  259  A    between atoms: _671  and  _672
REMARK  260  A    between atoms: _674  and  _676
REMARK  261  A    between atoms: _676  and  _677
REMARK  262  A    between atoms: _676  and  _679
REMARK  263  A    between atoms: _679  and  _680
REMARK  264  A    between atoms: _685  and  _686
REMARK  265  A    between atoms: _688  and  _690
REMARK  266  A    between atoms: _690  and  _691
REMARK  267  A    between atoms: _690  and  _693
REMARK  268  A    between atoms: _693  and  _694
REMARK  269  A    between atoms: _694  and  _695
REMARK  270  A    between atoms: _698  and  _700
REMARK  271  A    between atoms: _700  and  _701
REMARK  272  A    between atoms: _700  and  _703
REMARK  273  A    between atoms: _703  and  _704
REMARK                            x       y       z     vdW  Elec       q    Type
REMARK                         _______ _______ _______ _____ _____    ______ ____
ROOT
ATOM      1  CA  LEU A   1      27.163  21.696  25.518  0.00  0.00    +0.133 C 
ENDROOT
BRANCH   1   2
ATOM      2  N   LEU A   1      28.002  20.760  26.248  0.00  0.00    -0.239 NA
ATOM      3  H   LEU A   1      28.465  19.979  25.741  0.00  0.00    +0.142 HD
ENDBRANCH   1   2
BRANCH   1   4
ATOM      4  C   LEU A   1      25.721  21.594  26.001  0.00  0.00    +0.224 C 
ATOM      5  O   LEU A   1      25.283  20.535  26.437  0.00  0.00    -0.287 OA
ENDBRANCH   1   4
BRANCH   1   6
ATOM      6  CB  LEU A   1      27.226  21.431  24.013  0.00  0.00    +0.025 C 
BRANCH   6   7
ATOM      7  CG  LEU A   1      28.607  21.334  23.364  0.00  0.00    +0.002 C 
ATOM      8  CD2 LEU A   1      29.447  22.581  23.657  0.00  0.00    +0.000 C 
ATOM      9  CD1 LEU A   1      28.433  21.176  21.889  0.00  0.00    +0.000 C 
ENDBRANCH   6   7
ENDBRANCH   1   6
TORSDOF 4
REMARK  Name = ../refined-set-2016/1q84/1q84_pocket.pdb
REMARK  273 active torsions:
REMARK  status: ('A' for Active; 'I' for Inactive)
REMARK    1  A    between atoms: _1  and  _3
REMARK    2  A    between atoms: _3  and  _4
REMARK    3  A    between atoms: _3  and  _6
REMARK    4  A    between atoms: _6  and  _7
REMARK    5  A    between atoms: _7  and  _8
REMARK    6  A    between atoms: _13  and  _15
REMARK    7  A    between atoms: _15  and  _16
REMARK    8  A    between atoms: _15  and  _18
REMARK    9  A    between atoms: _18  and  _19
REMARK   10  A    between atoms: _24  and  _25
REMARK   11  A    between atoms: _27  and  _29
REMARK   12  A    between atoms: _29  and  _30
REMARK   13  A    between atoms: _29  and  _32
REMARK   14  A    between atoms: _35  and  _37
REMARK   15  A    between atoms: _37  and  _38
REMARK   16  A    between atoms: _37  and  _40
REMARK   17  A    between atoms: _40  and  _41
REMARK   18  A    between atoms: _44  and  _46
REMARK   19  A    between atoms: _46  and  _47
REMARK   20  A    between atoms: _46  and  _49
REMARK   21  A    between atoms: _49  and  _50
REMARK   22  A    between atoms: _53  and  _55
REMARK   23  A    between atoms: _55  and  _56
REMARK   24  A    between atoms: _55  and  _58
REMARK   25  A    between atoms: _58  and  _59
REMARK   26  A    between atoms: _62  and  _64
REMARK   27  A    between atoms: _64  and  _65
REMARK   28  A    between atoms: _64  and  _67
REMARK   29  A    between atoms: _67  and  _68
REMARK   30  A    between atoms: _73  and  _74
REMARK   31  A    between atoms: _76  and  _78
REMARK   32  A    between atoms: _78  and  _79
REMARK   33  A    between atoms: _78  and  _81
REMARK   34  A    between atoms: _81  and  _82
REMARK   35  A    between atoms: _88  and  _90
REMARK   36  A    between atoms: _90  and  _91
REMARK   37  A    between atoms: _90  and  _93
REMARK   38  A    between atoms: _93  and  _94
REMARK   39  A    between atoms: _94  and  _95
REMARK   40  A    between atoms: _98  and  _100
REMARK   41  A    between atoms: _100  and  _101
REMARK   42  A    between atoms: _103  and  _105
REMARK   43  A    between atoms: _105  and  _106
REMARK   44  A    between atoms: _105  and  _108
REMARK   45  A    between atoms: _108  and  _109
REMARK   46  A    between atoms: _112  and  _114
REMARK   47  A    between atoms: _114  and  _115
REMARK   48  A    between atoms: _114  and  _117
REMARK   49  A    between atoms: _117  and  _118
REMARK   50  A    between atoms: _118  and  _119
REMARK   51  A    between atoms: _122  and  _124
REMARK   52  A    between atoms: _124  and  _125
REMARK   53  A    between atoms: _124  and  _127
REMARK   54  A    between atoms: _127  and  _128
REMARK   55  A    between atoms: _128  and  _129
REMARK   56  A    between atoms: _131  and  _133
REMARK   57  A    between atoms: _133  and  _134
REMARK   58  A    between atoms: _133  and  _136
REMARK   59  A    between atoms: _136  and  _137
REMARK   60  A    between atoms: _147  and  _149
REMARK   61  A    between atoms: _149  and  _150
REMARK   62  A    between atoms: _149  and  _152
REMARK   63  A    between atoms: _152  and  _153
REMARK   64  A    between atoms: _158  and  _160
REMARK   65  A    between atoms: _160  and  _161
REMARK   66  A    between atoms: _160  and  _163
REMARK   67  A    between atoms: _163  and  _164
REMARK   68  A    between atoms: _174  and  _176
REMARK   69  A    between atoms: _176  and  _177
REMARK   70  A    between atoms: _176  and  _179
REMARK   71  A    between atoms: _179  and  _180
REMARK   72  A    between atoms: _185  and  _186
REMARK   73  A    between atoms: _188  and  _190
REMARK   74  A    between atoms: _190  and  _191
REMARK   75  A    between atoms: _193  and  _195
REMARK   76  A    between atoms: _195  and  _196
REMARK   77  A    between atoms: _198  and  _200
REMARK   78  A    between atoms: _200  and  _201
REMARK   79  A    between atoms: _203  and  _205
REMARK   80  A    between atoms: _205  and  _206
REMARK   81  A    between atoms: _205  and  _208
REMARK   82  A    between atoms: _208  and  _209
REMARK   83  A    between atoms: _215  and  _217
REMARK   84  A    between atoms: _217  and  _218
REMARK   85  A    between atoms: _217  and  _220
REMARK   86  A    between atoms: _220  and  _221
REMARK   87  A    between atoms: _226  and  _227
REMARK   88  A    between atoms: _229  and  _231
REMARK   89  A    between atoms: _231  and  _232
REMARK   90  A    between atoms: _231  and  _234
REMARK   91  A    between atoms: _234  and  _235
REMARK   92  A    between atoms: _237  and  _239
REMARK   93  A    between atoms: _239  and  _240
REMARK   94  A    between atoms: _242  and  _244
REMARK   95  A    between atoms: _244  and  _245
REMARK   96  A    between atoms: _248  and  _250
REMARK   97  A    between atoms: _250  and  _251
REMARK   98  A    between atoms: _250  and  _253
REMARK   99  A    between atoms: _253  and  _254
REMARK  100  A    between atoms: _257  and  _259
REMARK  101  A    between atoms: _259  and  _260
REMARK  102  A    between atoms: _259  and  _262
REMARK  103  A    between atoms: _265  and  _267
REMARK  104  A    between atoms: _267  and  _268
REMARK  105  A    between atoms: _267  and  _270
REMARK  106  A    between atoms: _270  and  _271
REMARK  107  A    between atoms: _276  and  _277
REMARK  108  A    between atoms: _279  and  _281
REMARK  109  A    between atoms: _281  and  _282
REMARK  110  A    between atoms: _281  and  _284
REMARK  111  A    between atoms: _284  and  _285
REMARK  112  A    between atoms: _290  and  _291
REMARK  113  A    between atoms: _293  and  _295
REMARK  114  A    between atoms: _295  and  _296
REMARK  115  A    between atoms: _295  and  _298
REMARK  116  A    between atoms: _298  and  _299
REMARK  117  A    between atoms: _299  and  _300
REMARK  118  A    between atoms: _303  and  _305
REMARK  119  A    between atoms: _305  and  _306
REMARK  120  A    between atoms: _305  and  _308
REMARK  121  A    between atoms: _308  and  _309
REMARK  122  A    between atoms: _311  and  _313
REMARK  123  A    between atoms: _313  and  _314
REMARK  124  A    between atoms: _317  and  _319
REMARK  125  A    between atoms: _319  and  _320
REMARK  126  A    between atoms: _322  and  _324
REMARK  127  A    between atoms: _324  and  _325
REMARK  128  A    between atoms: _328  and  _330
REMARK  129  A    between atoms: _330  and  _331
REMARK  130  A    between atoms: _330  and  _333
REMARK  131  A    between atoms: _333  and  _334
REMARK  132  A    between atoms: _336  and  _338
REMARK  133  A    between atoms: _338  and  _339
REMARK  134  A    between atoms: _338  and  _341
REMARK  135  A    between atoms: _344  and  _346
REMARK  136  A    between atoms: _346  and  _347
REMARK  137  A    between atoms: _346  and  _349
REMARK  138  A    between atoms: _349  and  _350
REMARK  139  A    between atoms: _353  and  _355
REMARK  140  A    between atoms: _355  and  _356
REMARK  141  A    between atoms: _355  and  _358
REMARK  142  A    between atoms: _358  and  _359
REMARK  143  A    between atoms: _364  and  _366
REMARK  144  A    between atoms: _366  and  _367
REMARK  145  A    between atoms: _366  and  _369
REMARK  146  A    between atoms: _369  and  _370
REMARK  147  A    between atoms: _370  and  _371
REMARK  148  A    between atoms: _374  and  _376
REMARK  149  A    between atoms: _376  and  _377
REMARK  150  A    between atoms: _376  and  _379
REMARK  151  A    between atoms: _379  and  _380
REMARK  152  A    between atoms: _390  and  _392
REMARK  153  A    between atoms: _392  and  _393
REMARK  154  A    between atoms: _392  and  _395
REMARK  155  A    between atoms: _395  and  _396
REMARK  156  A    between atoms: _401  and  _403
REMARK  157  A    between atoms: _403  and  _404
REMARK  158  A    between atoms: _403  and  _406
REMARK  159  A    between atoms: _409  and  _411
REMARK  160  A    between atoms: _411  and  _412
REMARK  161  A    between atoms: _411  and  _414
REMARK  162  A    between atoms: _414  and  _415
REMARK  163  A    between atoms: _419  and  _420
REMARK  164  A    between atoms: _425  and  _427
REMARK  165  A    between atoms: _427  and  _428
REMARK  166  A    between atoms: _427  and  _430
REMARK  167  A    between atoms: _430  and  _431
REMARK  168  A    between atoms: _431  and  _432
REMARK  169  A    between atoms: _437  and  _439
REMARK  170  A    between atoms: _439  and  _440
REMARK  171  A    between atoms: _439  and  _442
REMARK  172  A    between atoms: _442  and  _443
REMARK  173  A    between atoms: _443  and  _444
REMARK  174  A    between atoms: _447  and  _449
REMARK  175  A    between atoms: _449  and  _450
REMARK  176  A    between atoms: _449  and  _452
REMARK  177  A    between atoms: _452  and  _453
REMARK  178  A    between atoms: _455  and  _457
REMARK  179  A    between atoms: _457  and  _458
REMARK  180  A    between atoms: _457  and  _460
REMARK  181  A    between atoms: _460  and  _461
REMARK  182  A    between atoms: _464  and  _466
REMARK  183  A    between atoms: _466  and  _467
REMARK  184  A    between atoms: _466  and  _469
REMARK  185  A    between atoms: _469  and  _470
REMARK  186  A    between atoms: _476  and  _478
REMARK  187  A    between atoms: _478  and  _479
REMARK  188  A    between atoms: _478  and  _481
REMARK  189  A    between atoms: _481  and  _482
REMARK  190  A    between atoms: _482  and  _483
REMARK  191  A    between atoms: _483  and  _484
REMARK  192  A    between atoms: _493  and  _495
REMARK  193  A    between atoms: _495  and  _496
REMARK  194  A    between atoms: _495  and  _498
REMARK  195  A    between atoms: _498  and  _499
REMARK  196  A    between atoms: _505  and  _507
REMARK  197  A    between atoms: _507  and  _508
REMARK  198  A    between atoms: _507  and  _510
REMARK  199  A    between atoms: _510  and  _511
REMARK  200  A    between atoms: _513  and  _515
REMARK  201  A    between atoms: _515  and  _516
REMARK  202  A    between atoms: _515  and  _518
REMARK  203  A    between atoms: _518  and  _519
REMARK  204  A    between atoms: _519  and  _520
REMARK  205  A    between atoms: _523  and  _525
REMARK  206  A    between atoms: _525  and  _526
REMARK  207  A    between atoms: _525  and  _528
REMARK  208  A    between atoms: _528  and  _529
REMARK  209  A    between atoms: _531  and  _533
REMARK  210  A    between atoms: _533  and  _534
REMARK  211  A    between atoms: _533  and  _536
REMARK  212  A    between atoms: _536  and  _537
REMARK  213  A    between atoms: _542  and  _543
REMARK  214  A    between atoms: _545  and  _547
REMARK  215  A    between atoms: _547  and  _548
REMARK  216  A    between atoms: _547  and  _550
REMARK  217  A    between atoms: _550  and  _551
REMARK  218  A    between atoms: _557  and  _559
REMARK  219  A    between atoms: _559  and  _560
REMARK  220  A    between atoms: _559  and  _562
REMARK  221  A    between atoms: _562  and  _563
REMARK  222  A    between atoms: _566  and  _568
REMARK  223  A    between atoms: _568  and  _569
REMARK  224  A    between atoms: _568  and  _571
REMARK  225  A    between atoms: _574  and  _576
REMARK  226  A    between atoms: _576  and  _577
REMARK  227  A    between atoms: _576  and  _579
REMARK  228  A    between atoms: _579  and  _580
REMARK  229  A    between atoms: _585  and  _586
REMARK  230  A    between atoms: _588  and  _590
REMARK  231  A    between atoms: _590  and  _591
REMARK  232  A    between atoms: _593  and  _595
REMARK  233  A    between atoms: _595  and  _596
REMARK  234  A    between atoms: _595  and  _598
REMARK  235  A    between atoms: _601  and  _603
REMARK  236  A    between atoms: _603  and  _604
REMARK  237  A    between atoms: _603  and  _606
REMARK  238  A    between atoms: _606  and  _607
REMARK  239  A    between atoms: _611  and  _612
REMARK  240  A    between atoms: _617  and  _619
REMARK  241  A    between atoms: _619  and  _620
REMARK  242  A    between atoms: _619  and  _622
REMARK  243  A    between atoms: _622  and  _623
REMARK  244  A    between atoms: _626  and  _628
REMARK  245  A    between atoms: _628  and  _629
REMARK  246  A    between atoms: _628  and  _631
REMARK  247  A    between atoms: _631  and  _632
REMARK  248  A    between atoms: _642  and  _644
REMARK  249  A    between atoms: _644  and  _645
REMARK  250  A    between atoms: _644  and  _647
REMARK  251  A    between atoms: _647  and  _648
REMARK  252  A    between atoms: _648  and  _649
REMARK  253  A    between atoms: _652  and  _653
REMARK  254  A    between atoms: _658  and  _660
REMARK  255  A    between atoms: _660  and  _661
REMARK  256  A    between atoms: _660  and  _663
REMARK  257  A    between atoms: _663  and  _664
REMARK  258  A    between atoms: _669  and  _671
REMARK  259  A    between atoms: _671  and  _672
REMARK  260  A    between atoms: _674  and  _676
REMARK  261  A    between atoms: _676  and  _677
REMARK  262  A    between atoms: _676  and  _679
REMARK  263  A    between atoms: _679  and  _680
REMARK  264  A    between atoms: _685  and  _686
REMARK  265  A    between atoms: _688  and  _690
REMARK  266  A    between atoms: _690  and  _691
REMARK  267  A    between atoms: _690  and  _693
REMARK  268  A    between atoms: _693  and  _694
REMARK  269  A    between atoms: _694  and  _695
REMARK  270  A    between atoms: _698  and  _700
REMARK  271  A    between atoms: _700  and  _701
REMARK  272  A    between atoms: _700  and  _703
REMARK  273  A    between atoms: _703  and  _704
REMARK                            x       y       z     vdW  Elec       q    Type
REMARK                         _______ _______ _______ _____ _____    ______ ____
ROOT
ATOM      1  CA  TYR A   2      23.447  17.467  25.452  0.00  0.00    +0.141 C 
ENDROOT
BRANCH   1   3
ATOM      2  C   VAL A   1      22.150  19.109  24.206  0.00  0.00    +0.238 C 
ATOM      3  N   TYR A   2      23.233  18.814  24.913  0.00  0.00    -0.298 N 
ATOM      4  H   TYR A   2      23.944  19.552  25.088  0.00  0.00    +0.150 HD
ATOM      5  O   VAL A   1      21.335  18.271  23.870  0.00  0.00    -0.274 OA
BRANCH   2   6
ATOM      6  CA  VAL A   1      21.972  20.547  23.778  0.00  0.00    +0.145 C 
BRANCH   6   7
ATOM      7  CB  VAL A   1      22.103  20.626  22.234  0.00  0.00    +0.025 C 
ATOM      8  CG2 VAL A   1      23.552  20.594  21.794  0.00  0.00    +0.002 C 
ATOM      9  CG1 VAL A   1      21.435  21.876  21.725  0.00  0.00    +0.002 C 
ENDBRANCH   6   7
BRANCH   6  10
ATOM     10  N   VAL A   1      22.863  21.473  24.484  0.00  0.00    -0.238 NA
ATOM     11  H   VAL A   1      23.653  21.909  23.967  0.00  0.00    +0.142 HD
ENDBRANCH   6  10
ENDBRANCH   2   6
ENDBRANCH   1   3
BRANCH   1  12
ATOM     12  C   TYR A   2      23.087  17.367  26.970  0.00  0.00    +0.227 C 
ATOM     13  O   TYR A   2      23.433  16.417  27.645  0.00  0.00    -0.286 OA
ENDBRANCH   1  12
BRANCH   1  14
ATOM     14  CB  TYR A   2      24.887  17.017  25.206  0.00  0.00    +0.054 C 
BRANCH  14  15
ATOM     15  CG  TYR A   2      25.417  17.184  23.813  0.00  0.00    -0.020 A 
ATOM     16  CD2 TYR A   2      26.768  17.498  23.597  0.00  0.00    -0.001 A 
ATOM     17  CE2 TYR A   2      27.273  17.684  22.290  0.00  0.00    +0.036 A 
ATOM     18  CZ  TYR A   2      26.429  17.499  21.199  0.00  0.00    +0.134 A 
ATOM     19  CE1 TYR A   2      25.078  17.189  21.393  0.00  0.00    +0.036 A 
ATOM     20  CD1 TYR A   2      24.581  17.030  22.689  0.00  0.00    -0.001 A 
BRANCH  18  21
ATOM     21  OH  TYR A   2      26.896  17.655  19.901  0.00  0.00    -0.506 OA
ATOM     22  HH  TYR A   2      27.631  17.013  19.737  0.00  0.00    +0.292 HD
ENDBRANCH  18  21
ENDBRANCH  14  15
ENDBRANCH   1  14
TORSDOF 8
REMARK  Name = ../refined-set-2016/1q84/1q84_pocket.pdb
REMARK  273 active torsions:
REMARK  status: ('A' for Active; 'I' for Inactive)
REMARK    1  A    between atoms: _1  and  _3
REMARK    2  A    between atoms: _3  and  _4
REMARK    3  A    between atoms: _3  and  _6
REMARK    4  A    between atoms: _6  and  _7
REMARK    5  A    between atoms: _7  and  _8
REMARK    6  A    between atoms: _13  and  _15
REMARK    7  A    between atoms: _15  and  _16
REMARK    8  A    between atoms: _15  and  _18
REMARK    9  A    between atoms: _18  and  _19
REMARK   10  A    between atoms: _24  and  _25
REMARK   11  A    between atoms: _27  and  _29
REMARK   12  A    between atoms: _29  and  _30
REMARK   13  A    between atoms: _29  and  _32
REMARK   14  A    between atoms: _35  and  _37
REMARK   15  A    between atoms: _37  and  _38
REMARK   16  A    between atoms: _37  and  _40
REMARK   17  A    between atoms: _40  and  _41
REMARK   18  A    between atoms: _44  and  _46
REMARK   19  A    between atoms: _46  and  _47
REMARK   20  A    between atoms: _46  and  _49
REMARK   21  A    between atoms: _49  and  _50
REMARK   22  A    between atoms: _53  and  _55
REMARK   23  A    between atoms: _55  and  _56
REMARK   24  A    between atoms: _55  and  _58
REMARK   25  A    between atoms: _58  and  _59
REMARK   26  A    between atoms: _62  and  _64
REMARK   27  A    between atoms: _64  and  _65
REMARK   28  A    between atoms: _64  and  _67
REMARK   29  A    between atoms: _67  and  _68
REMARK   30  A    between atoms: _73  and  _74
REMARK   31  A    between atoms: _76  and  _78
REMARK   32  A    between atoms: _78  and  _79
REMARK   33  A    between atoms: _78  and  _81
REMARK   34  A    between atoms: _81  and  _82
REMARK   35  A    between atoms: _88  and  _90
REMARK   36  A    between atoms: _90  and  _91
REMARK   37  A    between atoms: _90  and  _93
REMARK   38  A    between atoms: _93  and  _94
REMARK   39  A    between atoms: _94  and  _95
REMARK   40  A    between atoms: _98  and  _100
REMARK   41  A    between atoms: _100  and  _101
REMARK   42  A    between atoms: _103  and  _105
REMARK   43  A    between atoms: _105  and  _106
REMARK   44  A    between atoms: _105  and  _108
REMARK   45  A    between atoms: _108  and  _109
REMARK   46  A    between atoms: _112  and  _114
REMARK   47  A    between atoms: _114  and  _115
REMARK   48  A    between atoms: _114  and  _117
REMARK   49  A    between atoms: _117  and  _118
REMARK   50  A    between atoms: _118  and  _119
REMARK   51  A    between atoms: _122  and  _124
REMARK   52  A    between atoms: _124  and  _125
REMARK   53  A    between atoms: _124  and  _127
REMARK   54  A    between atoms: _127  and  _128
REMARK   55  A    between atoms: _128  and  _129
REMARK   56  A    between atoms: _131  and  _133
REMARK   57  A    between atoms: _133  and  _134
REMARK   58  A    between atoms: _133  and  _136
REMARK   59  A    between atoms: _136  and  _137
REMARK   60  A    between atoms: _147  and  _149
REMARK   61  A    between atoms: _149  and  _150
REMARK   62  A    between atoms: _149  and  _152
REMARK   63  A    between atoms: _152  and  _153
REMARK   64  A    between atoms: _158  and  _160
REMARK   65  A    between atoms: _160  and  _161
REMARK   66  A    between atoms: _160  and  _163
REMARK   67  A    between atoms: _163  and  _164
REMARK   68  A    between atoms: _174  and  _176
REMARK   69  A    between atoms: _176  and  _177
REMARK   70  A    between atoms: _176  and  _179
REMARK   71  A    between atoms: _179  and  _180
REMARK   72  A    between atoms: _185  and  _186
REMARK   73  A    between atoms: _188  and  _190
REMARK   74  A    between atoms: _190  and  _191
REMARK   75  A    between atoms: _193  and  _195
REMARK   76  A    between atoms: _195  and  _196
REMARK   77  A    between atoms: _198  and  _200
REMARK   78  A    between atoms: _200  and  _201
REMARK   79  A    between atoms: _203  and  _205
REMARK   80  A    between atoms: _205  and  _206
REMARK   81  A    between atoms: _205  and  _208
REMARK   82  A    between atoms: _208  and  _209
REMARK   83  A    between atoms: _215  and  _217
REMARK   84  A    between atoms: _217  and  _218
REMARK   85  A    between atoms: _217  and  _220
REMARK   86  A    between atoms: _220  and  _221
REMARK   87  A    between atoms: _226  and  _227
REMARK   88  A    between atoms: _229  and  _231
REMARK   89  A    between atoms: _231  and  _232
REMARK   90  A    between atoms: _231  and  _234
REMARK   91  A    between atoms: _234  and  _235
REMARK   92  A    between atoms: _237  and  _239
REMARK   93  A    between atoms: _239  and  _240
REMARK   94  A    between atoms: _242  and  _244
REMARK   95  A    between atoms: _244  and  _245
REMARK   96  A    between atoms: _248  and  _250
REMARK   97  A    between atoms: _250  and  _251
REMARK   98  A    between atoms: _250  and  _253
REMARK   99  A    between atoms: _253  and  _254
REMARK  100  A    between atoms: _257  and  _259
REMARK  101  A    between atoms: _259  and  _260
REMARK  102  A    between atoms: _259  and  _262
REMARK  103  A    between atoms: _265  and  _267
REMARK  104  A    between atoms: _267  and  _268
REMARK  105  A    between atoms: _267  and  _270
REMARK  106  A    between atoms: _270  and  _271
REMARK  107  A    between atoms: _276  and  _277
REMARK  108  A    between atoms: _279  and  _281
REMARK  109  A    between atoms: _281  and  _282
REMARK  110  A    between atoms: _281  and  _284
REMARK  111  A    between atoms: _284  and  _285
REMARK  112  A    between atoms: _290  and  _291
REMARK  113  A    between atoms: _293  and  _295
REMARK  114  A    between atoms: _295  and  _296
REMARK  115  A    between atoms: _295  and  _298
REMARK  116  A    between atoms: _298  and  _299
REMARK  117  A    between atoms: _299  and  _300
REMARK  118  A    between atoms: _303  and  _305
REMARK  119  A    between atoms: _305  and  _306
REMARK  120  A    between atoms: _305  and  _308
REMARK  121  A    between atoms: _308  and  _309
REMARK  122  A    between atoms: _311  and  _313
REMARK  123  A    between atoms: _313  and  _314
REMARK  124  A    between atoms: _317  and  _319
REMARK  125  A    between atoms: _319  and  _320
REMARK  126  A    between atoms: _322  and  _324
REMARK  127  A    between atoms: _324  and  _325
REMARK  128  A    between atoms: _328  and  _330
REMARK  129  A    between atoms: _330  and  _331
REMARK  130  A    between atoms: _330  and  _333
REMARK  131  A    between atoms: _333  and  _334
REMARK  132  A    between atoms: _336  and  _338
REMARK  133  A    between atoms: _338  and  _339
REMARK  134  A    between atoms: _338  and  _341
REMARK  135  A    between atoms: _344  and  _346
REMARK  136  A    between atoms: _346  and  _347
REMARK  137  A    between atoms: _346  and  _349
REMARK  138  A    between atoms: _349  and  _350
REMARK  139  A    between atoms: _353  and  _355
REMARK  140  A    between atoms: _355  and  _356
REMARK  141  A    between atoms: _355  and  _358
REMARK  142  A    between atoms: _358  and  _359
REMARK  143  A    between atoms: _364  and  _366
REMARK  144  A    between atoms: _366  and  _367
REMARK  145  A    between atoms: _366  and  _369
REMARK  146  A    between atoms: _369  and  _370
REMARK  147  A    between atoms: _370  and  _371
REMARK  148  A    between atoms: _374  and  _376
REMARK  149  A    between atoms: _376  and  _377
REMARK  150  A    between atoms: _376  and  _379
REMARK  151  A    between atoms: _379  and  _380
REMARK  152  A    between atoms: _390  and  _392
REMARK  153  A    between atoms: _392  and  _393
REMARK  154  A    between atoms: _392  and  _395
REMARK  155  A    between atoms: _395  and  _396
REMARK  156  A    between atoms: _401  and  _403
REMARK  157  A    between atoms: _403  and  _404
REMARK  158  A    between atoms: _403  and  _406
REMARK  159  A    between atoms: _409  and  _411
REMARK  160  A    between atoms: _411  and  _412
REMARK  161  A    between atoms: _411  and  _414
REMARK  162  A    between atoms: _414  and  _415
REMARK  163  A    between atoms: _419  and  _420
REMARK  164  A    between atoms: _425  and  _427
REMARK  165  A    between atoms: _427  and  _428
REMARK  166  A    between atoms: _427  and  _430
REMARK  167  A    between atoms: _430  and  _431
REMARK  168  A    between atoms: _431  and  _432
REMARK  169  A    between atoms: _437  and  _439
REMARK  170  A    between atoms: _439  and  _440
REMARK  171  A    between atoms: _439  and  _442
REMARK  172  A    between atoms: _442  and  _443
REMARK  173  A    between atoms: _443  and  _444
REMARK  174  A    between atoms: _447  and  _449
REMARK  175  A    between atoms: _449  and  _450
REMARK  176  A    between atoms: _449  and  _452
REMARK  177  A    between atoms: _452  and  _453
REMARK  178  A    between atoms: _455  and  _457
REMARK  179  A    between atoms: _457  and  _458
REMARK  180  A    between atoms: _457  and  _460
REMARK  181  A    between atoms: _460  and  _461
REMARK  182  A    between atoms: _464  and  _466
REMARK  183  A    between atoms: _466  and  _467
REMARK  184  A    between atoms: _466  and  _469
REMARK  185  A    between atoms: _469  and  _470
REMARK  186  A    between atoms: _476  and  _478
REMARK  187  A    between atoms: _478  and  _479
REMARK  188  A    between atoms: _478  and  _481
REMARK  189  A    between atoms: _481  and  _482
REMARK  190  A    between atoms: _482  and  _483
REMARK  191  A    between atoms: _483  and  _484
REMARK  192  A    between atoms: _493  and  _495
REMARK  193  A    between atoms: _495  and  _496
REMARK  194  A    between atoms: _495  and  _498
REMARK  195  A    between atoms: _498  and  _499
REMARK  196  A    between atoms: _505  and  _507
REMARK  197  A    between atoms: _507  and  _508
REMARK  198  A    between atoms: _507  and  _510
REMARK  199  A    between atoms: _510  and  _511
REMARK  200  A    between atoms: _513  and  _515
REMARK  201  A    between atoms: _515  and  _516
REMARK  202  A    between atoms: _515  and  _518
REMARK  203  A    between atoms: _518  and  _519
REMARK  204  A    between atoms: _519  and  _520
REMARK  205  A    between atoms: _523  and  _525
REMARK  206  A    between atoms: _525  and  _526
REMARK  207  A    between atoms: _525  and  _528
REMARK  208  A    between atoms: _528  and  _529
REMARK  209  A    between atoms: _531  and  _533
REMARK  210  A    between atoms: _533  and  _534
REMARK  211  A    between atoms: _533  and  _536
REMARK  212  A    between atoms: _536  and  _537
REMARK  213  A    between atoms: _542  and  _543
REMARK  214  A    between atoms: _545  and  _547
REMARK  215  A    between atoms: _547  and  _548
REMARK  216  A    between atoms: _547  and  _550
REMARK  217  A    between atoms: _550  and  _551
REMARK  218  A    between atoms: _557  and  _559
REMARK  219  A    between atoms: _559  and  _560
REMARK  220  A    between atoms: _559  and  _562
REMARK  221  A    between atoms: _562  and  _563
REMARK  222  A    between atoms: _566  and  _568
REMARK  223  A    between atoms: _568  and  _569
REMARK  224  A    between atoms: _568  and  _571
REMARK  225  A    between atoms: _574  and  _576
REMARK  226  A    between atoms: _576  and  _577
REMARK  227  A    between atoms: _576  and  _579
REMARK  228  A    between atoms: _579  and  _580
REMARK  229  A    between atoms: _585  and  _586
REMARK  230  A    between atoms: _588  and  _590
REMARK  231  A    between atoms: _590  and  _591
REMARK  232  A    between atoms: _593  and  _595
REMARK  233  A    between atoms: _595  and  _596
REMARK  234  A    between atoms: _595  and  _598
REMARK  235  A    between atoms: _601  and  _603
REMARK  236  A    between atoms: _603  and  _604
REMARK  237  A    between atoms: _603  and  _606
REMARK  238  A    between atoms: _606  and  _607
REMARK  239  A    between atoms: _611  and  _612
REMARK  240  A    between atoms: _617  and  _619
REMARK  241  A    between atoms: _619  and  _620
REMARK  242  A    between atoms: _619  and  _622
REMARK  243  A    between atoms: _622  and  _623
REMARK  244  A    between atoms: _626  and  _628
REMARK  245  A    between atoms: _628  and  _629
REMARK  246  A    between atoms: _628  and  _631
REMARK  247  A    between atoms: _631  and  _632
REMARK  248  A    between atoms: _642  and  _644
REMARK  249  A    between atoms: _644  and  _645
REMARK  250  A    between atoms: _644  and  _647
REMARK  251  A    between atoms: _647  and  _648
REMARK  252  A    between atoms: _648  and  _649
REMARK  253  A    between atoms: _652  and  _653
REMARK  254  A    between atoms: _658  and  _660
REMARK  255  A    between atoms: _660  and  _661
REMARK  256  A    between atoms: _660  and  _663
REMARK  257  A    between atoms: _663  and  _664
REMARK  258  A    between atoms: _669  and  _671
REMARK  259  A    between atoms: _671  and  _672
REMARK  260  A    between atoms: _674  and  _676
REMARK  261  A    between atoms: _676  and  _677
REMARK  262  A    between atoms: _676  and  _679
REMARK  263  A    between atoms: _679  and  _680
REMARK  264  A    between atoms: _685  and  _686
REMARK  265  A    between atoms: _688  and  _690
REMARK  266  A    between atoms: _690  and  _691
REMARK  267  A    between atoms: _690  and  _693
REMARK  268  A    between atoms: _693  and  _694
REMARK  269  A    between atoms: _694  and  _695
REMARK  270  A    between atoms: _698  and  _700
REMARK  271  A    between atoms: _700  and  _701
REMARK  272  A    between atoms: _700  and  _703
REMARK  273  A    between atoms: _703  and  _704
REMARK                            x       y       z     vdW  Elec       q    Type
REMARK                         _______ _______ _______ _____ _____    ______ ____
ROOT
ATOM      1  CG  TYR A   1      35.509  11.331  22.040  0.00  0.00    -0.020 A 
ATOM      2  CD2 TYR A   1      34.160  11.550  22.224  0.00  0.00    -0.001 A 
ATOM      3  CE2 TYR A   1      33.356  11.962  21.188  0.00  0.00    +0.036 A 
ATOM      4  CZ  TYR A   1      33.888  12.165  19.937  0.00  0.00    +0.134 A 
ATOM      5  CE1 TYR A   1      35.217  11.942  19.720  0.00  0.00    +0.036 A 
ATOM      6  CD1 TYR A   1      36.021  11.508  20.768  0.00  0.00    -0.001 A 
ENDROOT
BRANCH   4   7
ATOM      7  OH  TYR A   1      33.086  12.585  18.895  0.00  0.00    -0.506 OA
ATOM      8  HH  TYR A   1      32.158  12.699  19.220  0.00  0.00    +0.292 HD
ENDBRANCH   4   7
BRANCH   1   9
ATOM      9  CB  TYR A   1      36.382  10.859  23.167  0.00  0.00    +0.051 C 
BRANCH   9  10
ATOM     10  CA  TYR A   1      36.959  11.956  24.043  0.00  0.00    +0.137 C 
BRANCH  10  11
ATOM     11  N   TYR A   1      35.913  12.730  24.700  0.00  0.00    -0.239 NA
ATOM     12  H   TYR A   1      35.355  13.387  24.119  0.00  0.00    +0.142 HD
ENDBRANCH  10  11
BRANCH  10  13
ATOM     13  C   TYR A   1      37.778  12.907  23.196  0.00  0.00    +0.224 C 
ATOM     14  O   TYR A   1      37.262  13.932  22.709  0.00  0.00    -0.287 OA
ENDBRANCH  10  13
ENDBRANCH   9  10
ENDBRANCH   1   9
TORSDOF 5
REMARK  Name = ../refined-set-2016/1q84/1q84_pocket.pdb
REMARK  273 active torsions:
REMARK  status: ('A' for Active; 'I' for Inactive)
REMARK    1  A    between atoms: _1  and  _3
REMARK    2  A    between atoms: _3  and  _4
REMARK    3  A    between atoms: _3  and  _6
REMARK    4  A    between atoms: _6  and  _7
REMARK    5  A    between atoms: _7  and  _8
REMARK    6  A    between atoms: _13  and  _15
REMARK    7  A    between atoms: _15  and  _16
REMARK    8  A    between atoms: _15  and  _18
REMARK    9  A    between atoms: _18  and  _19
REMARK   10  A    between atoms: _24  and  _25
REMARK   11  A    between atoms: _27  and  _29
REMARK   12  A    between atoms: _29  and  _30
REMARK   13  A    between atoms: _29  and  _32
REMARK   14  A    between atoms: _35  and  _37
REMARK   15  A    between atoms: _37  and  _38
REMARK   16  A    between atoms: _37  and  _40
REMARK   17  A    between atoms: _40  and  _41
REMARK   18  A    between atoms: _44  and  _46
REMARK   19  A    between atoms: _46  and  _47
REMARK   20  A    between atoms: _46  and  _49
REMARK   21  A    between atoms: _49  and  _50
REMARK   22  A    between atoms: _53  and  _55
REMARK   23  A    between atoms: _55  and  _56
REMARK   24  A    between atoms: _55  and  _58
REMARK   25  A    between atoms: _58  and  _59
REMARK   26  A    between atoms: _62  and  _64
REMARK   27  A    between atoms: _64  and  _65
REMARK   28  A    between atoms: _64  and  _67
REMARK   29  A    between atoms: _67  and  _68
REMARK   30  A    between atoms: _73  and  _74
REMARK   31  A    between atoms: _76  and  _78
REMARK   32  A    between atoms: _78  and  _79
REMARK   33  A    between atoms: _78  and  _81
REMARK   34  A    between atoms: _81  and  _82
REMARK   35  A    between atoms: _88  and  _90
REMARK   36  A    between atoms: _90  and  _91
REMARK   37  A    between atoms: _90  and  _93
REMARK   38  A    between atoms: _93  and  _94
REMARK   39  A    between atoms: _94  and  _95
REMARK   40  A    between atoms: _98  and  _100
REMARK   41  A    between atoms: _100  and  _101
REMARK   42  A    between atoms: _103  and  _105
REMARK   43  A    between atoms: _105  and  _106
REMARK   44  A    between atoms: _105  and  _108
REMARK   45  A    between atoms: _108  and  _109
REMARK   46  A    between atoms: _112  and  _114
REMARK   47  A    between atoms: _114  and  _115
REMARK   48  A    between atoms: _114  and  _117
REMARK   49  A    between atoms: _117  and  _118
REMARK   50  A    between atoms: _118  and  _119
REMARK   51  A    between atoms: _122  and  _124
REMARK   52  A    between atoms: _124  and  _125
REMARK   53  A    between atoms: _124  and  _127
REMARK   54  A    between atoms: _127  and  _128
REMARK   55  A    between atoms: _128  and  _129
REMARK   56  A    between atoms: _131  and  _133
REMARK   57  A    between atoms: _133  and  _134
REMARK   58  A    between atoms: _133  and  _136
REMARK   59  A    between atoms: _136  and  _137
REMARK   60  A    between atoms: _147  and  _149
REMARK   61  A    between atoms: _149  and  _150
REMARK   62  A    between atoms: _149  and  _152
REMARK   63  A    between atoms: _152  and  _153
REMARK   64  A    between atoms: _158  and  _160
REMARK   65  A    between atoms: _160  and  _161
REMARK   66  A    between atoms: _160  and  _163
REMARK   67  A    between atoms: _163  and  _164
REMARK   68  A    between atoms: _174  and  _176
REMARK   69  A    between atoms: _176  and  _177
REMARK   70  A    between atoms: _176  and  _179
REMARK   71  A    between atoms: _179  and  _180
REMARK   72  A    between atoms: _185  and  _186
REMARK   73  A    between atoms: _188  and  _190
REMARK   74  A    between atoms: _190  and  _191
REMARK   75  A    between atoms: _193  and  _195
REMARK   76  A    between atoms: _195  and  _196
REMARK   77  A    between atoms: _198  and  _200
REMARK   78  A    between atoms: _200  and  _201
REMARK   79  A    between atoms: _203  and  _205
REMARK   80  A    between atoms: _205  and  _206
REMARK   81  A    between atoms: _205  and  _208
REMARK   82  A    between atoms: _208  and  _209
REMARK   83  A    between atoms: _215  and  _217
REMARK   84  A    between atoms: _217  and  _218
REMARK   85  A    between atoms: _217  and  _220
REMARK   86  A    between atoms: _220  and  _221
REMARK   87  A    between atoms: _226  and  _227
REMARK   88  A    between atoms: _229  and  _231
REMARK   89  A    between atoms: _231  and  _232
REMARK   90  A    between atoms: _231  and  _234
REMARK   91  A    between atoms: _234  and  _235
REMARK   92  A    between atoms: _237  and  _239
REMARK   93  A    between atoms: _239  and  _240
REMARK   94  A    between atoms: _242  and  _244
REMARK   95  A    between atoms: _244  and  _245
REMARK   96  A    between atoms: _248  and  _250
REMARK   97  A    between atoms: _250  and  _251
REMARK   98  A    between atoms: _250  and  _253
REMARK   99  A    between atoms: _253  and  _254
REMARK  100  A    between atoms: _257  and  _259
REMARK  101  A    between atoms: _259  and  _260
REMARK  102  A    between atoms: _259  and  _262
REMARK  103  A    between atoms: _265  and  _267
REMARK  104  A    between atoms: _267  and  _268
REMARK  105  A    between atoms: _267  and  _270
REMARK  106  A    between atoms: _270  and  _271
REMARK  107  A    between atoms: _276  and  _277
REMARK  108  A    between atoms: _279  and  _281
REMARK  109  A    between atoms: _281  and  _282
REMARK  110  A    between atoms: _281  and  _284
REMARK  111  A    between atoms: _284  and  _285
REMARK  112  A    between atoms: _290  and  _291
REMARK  113  A    between atoms: _293  and  _295
REMARK  114  A    between atoms: _295  and  _296
REMARK  115  A    between atoms: _295  and  _298
REMARK  116  A    between atoms: _298  and  _299
REMARK  117  A    between atoms: _299  and  _300
REMARK  118  A    between atoms: _303  and  _305
REMARK  119  A    between atoms: _305  and  _306
REMARK  120  A    between atoms: _305  and  _308
REMARK  121  A    between atoms: _308  and  _309
REMARK  122  A    between atoms: _311  and  _313
REMARK  123  A    between atoms: _313  and  _314
REMARK  124  A    between atoms: _317  and  _319
REMARK  125  A    between atoms: _319  and  _320
REMARK  126  A    between atoms: _322  and  _324
REMARK  127  A    between atoms: _324  and  _325
REMARK  128  A    between atoms: _328  and  _330
REMARK  129  A    between atoms: _330  and  _331
REMARK  130  A    between atoms: _330  and  _333
REMARK  131  A    between atoms: _333  and  _334
REMARK  132  A    between atoms: _336  and  _338
REMARK  133  A    between atoms: _338  and  _339
REMARK  134  A    between atoms: _338  and  _341
REMARK  135  A    between atoms: _344  and  _346
REMARK  136  A    between atoms: _346  and  _347
REMARK  137  A    between atoms: _346  and  _349
REMARK  138  A    between atoms: _349  and  _350
REMARK  139  A    between atoms: _353  and  _355
REMARK  140  A    between atoms: _355  and  _356
REMARK  141  A    between atoms: _355  and  _358
REMARK  142  A    between atoms: _358  and  _359
REMARK  143  A    between atoms: _364  and  _366
REMARK  144  A    between atoms: _366  and  _367
REMARK  145  A    between atoms: _366  and  _369
REMARK  146  A    between atoms: _369  and  _370
REMARK  147  A    between atoms: _370  and  _371
REMARK  148  A    between atoms: _374  and  _376
REMARK  149  A    between atoms: _376  and  _377
REMARK  150  A    between atoms: _376  and  _379
REMARK  151  A    between atoms: _379  and  _380
REMARK  152  A    between atoms: _390  and  _392
REMARK  153  A    between atoms: _392  and  _393
REMARK  154  A    between atoms: _392  and  _395
REMARK  155  A    between atoms: _395  and  _396
REMARK  156  A    between atoms: _401  and  _403
REMARK  157  A    between atoms: _403  and  _404
REMARK  158  A    between atoms: _403  and  _406
REMARK  159  A    between atoms: _409  and  _411
REMARK  160  A    between atoms: _411  and  _412
REMARK  161  A    between atoms: _411  and  _414
REMARK  162  A    between atoms: _414  and  _415
REMARK  163  A    between atoms: _419  and  _420
REMARK  164  A    between atoms: _425  and  _427
REMARK  165  A    between atoms: _427  and  _428
REMARK  166  A    between atoms: _427  and  _430
REMARK  167  A    between atoms: _430  and  _431
REMARK  168  A    between atoms: _431  and  _432
REMARK  169  A    between atoms: _437  and  _439
REMARK  170  A    between atoms: _439  and  _440
REMARK  171  A    between atoms: _439  and  _442
REMARK  172  A    between atoms: _442  and  _443
REMARK  173  A    between atoms: _443  and  _444
REMARK  174  A    between atoms: _447  and  _449
REMARK  175  A    between atoms: _449  and  _450
REMARK  176  A    between atoms: _449  and  _452
REMARK  177  A    between atoms: _452  and  _453
REMARK  178  A    between atoms: _455  and  _457
REMARK  179  A    between atoms: _457  and  _458
REMARK  180  A    between atoms: _457  and  _460
REMARK  181  A    between atoms: _460  and  _461
REMARK  182  A    between atoms: _464  and  _466
REMARK  183  A    between atoms: _466  and  _467
REMARK  184  A    between atoms: _466  and  _469
REMARK  185  A    between atoms: _469  and  _470
REMARK  186  A    between atoms: _476  and  _478
REMARK  187  A    between atoms: _478  and  _479
REMARK  188  A    between atoms: _478  and  _481
REMARK  189  A    between atoms: _481  and  _482
REMARK  190  A    between atoms: _482  and  _483
REMARK  191  A    between atoms: _483  and  _484
REMARK  192  A    between atoms: _493  and  _495
REMARK  193  A    between atoms: _495  and  _496
REMARK  194  A    between atoms: _495  and  _498
REMARK  195  A    between atoms: _498  and  _499
REMARK  196  A    between atoms: _505  and  _507
REMARK  197  A    between atoms: _507  and  _508
REMARK  198  A    between atoms: _507  and  _510
REMARK  199  A    between atoms: _510  and  _511
REMARK  200  A    between atoms: _513  and  _515
REMARK  201  A    between atoms: _515  and  _516
REMARK  202  A    between atoms: _515  and  _518
REMARK  203  A    between atoms: _518  and  _519
REMARK  204  A    between atoms: _519  and  _520
REMARK  205  A    between atoms: _523  and  _525
REMARK  206  A    between atoms: _525  and  _526
REMARK  207  A    between atoms: _525  and  _528
REMARK  208  A    between atoms: _528  and  _529
REMARK  209  A    between atoms: _531  and  _533
REMARK  210  A    between atoms: _533  and  _534
REMARK  211  A    between atoms: _533  and  _536
REMARK  212  A    between atoms: _536  and  _537
REMARK  213  A    between atoms: _542  and  _543
REMARK  214  A    between atoms: _545  and  _547
REMARK  215  A    between atoms: _547  and  _548
REMARK  216  A    between atoms: _547  and  _550
REMARK  217  A    between atoms: _550  and  _551
REMARK  218  A    between atoms: _557  and  _559
REMARK  219  A    between atoms: _559  and  _560
REMARK  220  A    between atoms: _559  and  _562
REMARK  221  A    between atoms: _562  and  _563
REMARK  222  A    between atoms: _566  and  _568
REMARK  223  A    between atoms: _568  and  _569
REMARK  224  A    between atoms: _568  and  _571
REMARK  225  A    between atoms: _574  and  _576
REMARK  226  A    between atoms: _576  and  _577
REMARK  227  A    between atoms: _576  and  _579
REMARK  228  A    between atoms: _579  and  _580
REMARK  229  A    between atoms: _585  and  _586
REMARK  230  A    between atoms: _588  and  _590
REMARK  231  A    between atoms: _590  and  _591
REMARK  232  A    between atoms: _593  and  _595
REMARK  233  A    between atoms: _595  and  _596
REMARK  234  A    between atoms: _595  and  _598
REMARK  235  A    between atoms: _601  and  _603
REMARK  236  A    between atoms: _603  and  _604
REMARK  237  A    between atoms: _603  and  _606
REMARK  238  A    between atoms: _606  and  _607
REMARK  239  A    between atoms: _611  and  _612
REMARK  240  A    between atoms: _617  and  _619
REMARK  241  A    between atoms: _619  and  _620
REMARK  242  A    between atoms: _619  and  _622
REMARK  243  A    between atoms: _622  and  _623
REMARK  244  A    between atoms: _626  and  _628
REMARK  245  A    between atoms: _628  and  _629
REMARK  246  A    between atoms: _628  and  _631
REMARK  247  A    between atoms: _631  and  _632
REMARK  248  A    between atoms: _642  and  _644
REMARK  249  A    between atoms: _644  and  _645
REMARK  250  A    between atoms: _644  and  _647
REMARK  251  A    between atoms: _647  and  _648
REMARK  252  A    between atoms: _648  and  _649
REMARK  253  A    between atoms: _652  and  _653
REMARK  254  A    between atoms: _658  and  _660
REMARK  255  A    between atoms: _660  and  _661
REMARK  256  A    between atoms: _660  and  _663
REMARK  257  A    between atoms: _663  and  _664
REMARK  258  A    between atoms: _669  and  _671
REMARK  259  A    between atoms: _671  and  _672
REMARK  260  A    between atoms: _674  and  _676
REMARK  261  A    between atoms: _676  and  _677
REMARK  262  A    between atoms: _676  and  _679
REMARK  263  A    between atoms: _679  and  _680
REMARK  264  A    between atoms: _685  and  _686
REMARK  265  A    between atoms: _688  and  _690
REMARK  266  A    between atoms: _690  and  _691
REMARK  267  A    between atoms: _690  and  _693
REMARK  268  A    between atoms: _693  and  _694
REMARK  269  A    between atoms: _694  and  _695
REMARK  270  A    between atoms: _698  and  _700
REMARK  271  A    between atoms: _700  and  _701
REMARK  272  A    between atoms: _700  and  _703
REMARK  273  A    between atoms: _703  and  _704
REMARK                            x       y       z     vdW  Elec       q    Type
REMARK                         _______ _______ _______ _____ _____    ______ ____
ROOT
ATOM      1  C   SER A   2      28.377  11.811  13.555  0.00  0.00    +0.243 C 
ATOM      2  N   ALA A   3      29.535  12.401  13.850  0.00  0.00    -0.297 N 
ATOM      3  H   ALA A   3      29.608  13.438  13.843  0.00  0.00    +0.150 HD
ATOM      4  O   SER A   2      28.262  10.588  13.549  0.00  0.00    -0.273 OA
ENDROOT
BRANCH   2   5
ATOM      5  CA  ALA A   3      30.716  11.578  14.187  0.00  0.00    +0.149 C 
ATOM      6  CB  ALA A   3      31.951  12.436  14.395  0.00  0.00    +0.031 C 
BRANCH   5   7
ATOM      7  C   ALA A   3      30.489  10.723  15.423  0.00  0.00    +0.241 C 
ATOM      8  N   GLY A   4      29.571  11.161  16.290  0.00  0.00    -0.295 N 
ATOM      9  H   GLY A   4      29.131  12.089  16.127  0.00  0.00    +0.150 HD
ATOM     10  O   ALA A   3      31.174   9.709  15.610  0.00  0.00    -0.273 OA
BRANCH   8  11
ATOM     11  CA  GLY A   4      29.164  10.384  17.457  0.00  0.00    +0.176 C 
BRANCH  11  12
ATOM     12  C   GLY A   4      28.439   9.110  17.046  0.00  0.00    +0.243 C 
ATOM     13  O   GLY A   4      28.627   8.039  17.607  0.00  0.00    -0.273 OA
ATOM     14  N   ALA A   5      27.595   9.238  16.043  0.00  0.00    -0.298 N 
ATOM     15  H   ALA A   5      27.419  10.184  15.648  0.00  0.00    +0.150 HD
BRANCH  14  16
ATOM     16  CA  ALA A   5      26.915   8.114  15.482  0.00  0.00    +0.137 C 
ATOM     17  CB  ALA A   5      25.829   8.587  14.533  0.00  0.00    +0.030 C 
BRANCH  16  18
ATOM     18  C   ALA A   5      27.906   7.186  14.771  0.00  0.00    +0.227 C 
ATOM     19  O   ALA A   5      27.798   5.968  14.866  0.00  0.00    -0.286 OA
ENDBRANCH  16  18
ENDBRANCH  14  16
ENDBRANCH  11  12
ENDBRANCH   8  11
ENDBRANCH   5   7
ENDBRANCH   2   5
BRANCH   1  20
ATOM     20  CA  SER A   2      27.143  12.669  13.266  0.00  0.00    +0.178 C 
BRANCH  20  23
ATOM     21  C   GLU A   1      26.185  12.395  15.504  0.00  0.00    +0.238 C 
ATOM     22  O   GLU A   1      27.209  12.740  16.090  0.00  0.00    -0.274 OA
ATOM     23  N   SER A   2      26.070  12.320  14.173  0.00  0.00    -0.295 N 
ATOM     24  H   SER A   2      25.167  11.996  13.771  0.00  0.00    +0.150 HD
BRANCH  21  25
ATOM     25  CA  GLU A   1      24.947  11.999  16.292  0.00  0.00    +0.145 C 
BRANCH  25  26
ATOM     26  N   GLU A   1      25.313  11.345  17.523  0.00  0.00    -0.238 NA
ATOM     27  H   GLU A   1      26.001  11.790  18.164  0.00  0.00    +0.142 HD
ENDBRANCH  25  26
BRANCH  25  28
ATOM     28  CB  GLU A   1      24.040  13.184  16.575  0.00  0.00    +0.038 C 
BRANCH  28  29
ATOM     29  CG  GLU A   1      23.471  13.855  15.329  0.00  0.00    +0.116 C 
BRANCH  29  30
ATOM     30  CD  GLU A   1      24.320  15.006  14.870  0.00  0.00    +0.365 C 
ATOM     31  OE2 GLU A   1      25.316  15.308  15.575  0.00  0.00    -0.246 OA
ATOM     32  OE1 GLU A   1      23.966  15.594  13.820  0.00  0.00    -0.246 OA
ENDBRANCH  29  30
ENDBRANCH  28  29
ENDBRANCH  25  28
ENDBRANCH  21  25
ENDBRANCH  20  23
BRANCH  20  33
ATOM     33  CB  SER A   2      27.421  14.176  13.351  0.00  0.00    +0.166 C 
BRANCH  33  34
ATOM     34  OG  SER A   2      27.998  14.580  12.133  0.00  0.00    -0.380 OA
ATOM     35  H   SER A   2      28.187  15.551  12.165  0.00  0.00    +0.211 HD
ENDBRANCH  33  34
ENDBRANCH  20  33
ENDBRANCH   1  20
TORSDOF 15
REMARK  Name = ../refined-set-2016/1q84/1q84_pocket.pdb
REMARK  273 active torsions:
REMARK  status: ('A' for Active; 'I' for Inactive)
REMARK    1  A    between atoms: _1  and  _3
REMARK    2  A    between atoms: _3  and  _4
REMARK    3  A    between atoms: _3  and  _6
REMARK    4  A    between atoms: _6  and  _7
REMARK    5  A    between atoms: _7  and  _8
REMARK    6  A    between atoms: _13  and  _15
REMARK    7  A    between atoms: _15  and  _16
REMARK    8  A    between atoms: _15  and  _18
REMARK    9  A    between atoms: _18  and  _19
REMARK   10  A    between atoms: _24  and  _25
REMARK   11  A    between atoms: _27  and  _29
REMARK   12  A    between atoms: _29  and  _30
REMARK   13  A    between atoms: _29  and  _32
REMARK   14  A    between atoms: _35  and  _37
REMARK   15  A    between atoms: _37  and  _38
REMARK   16  A    between atoms: _37  and  _40
REMARK   17  A    between atoms: _40  and  _41
REMARK   18  A    between atoms: _44  and  _46
REMARK   19  A    between atoms: _46  and  _47
REMARK   20  A    between atoms: _46  and  _49
REMARK   21  A    between atoms: _49  and  _50
REMARK   22  A    between atoms: _53  and  _55
REMARK   23  A    between atoms: _55  and  _56
REMARK   24  A    between atoms: _55  and  _58
REMARK   25  A    between atoms: _58  and  _59
REMARK   26  A    between atoms: _62  and  _64
REMARK   27  A    between atoms: _64  and  _65
REMARK   28  A    between atoms: _64  and  _67
REMARK   29  A    between atoms: _67  and  _68
REMARK   30  A    between atoms: _73  and  _74
REMARK   31  A    between atoms: _76  and  _78
REMARK   32  A    between atoms: _78  and  _79
REMARK   33  A    between atoms: _78  and  _81
REMARK   34  A    between atoms: _81  and  _82
REMARK   35  A    between atoms: _88  and  _90
REMARK   36  A    between atoms: _90  and  _91
REMARK   37  A    between atoms: _90  and  _93
REMARK   38  A    between atoms: _93  and  _94
REMARK   39  A    between atoms: _94  and  _95
REMARK   40  A    between atoms: _98  and  _100
REMARK   41  A    between atoms: _100  and  _101
REMARK   42  A    between atoms: _103  and  _105
REMARK   43  A    between atoms: _105  and  _106
REMARK   44  A    between atoms: _105  and  _108
REMARK   45  A    between atoms: _108  and  _109
REMARK   46  A    between atoms: _112  and  _114
REMARK   47  A    between atoms: _114  and  _115
REMARK   48  A    between atoms: _114  and  _117
REMARK   49  A    between atoms: _117  and  _118
REMARK   50  A    between atoms: _118  and  _119
REMARK   51  A    between atoms: _122  and  _124
REMARK   52  A    between atoms: _124  and  _125
REMARK   53  A    between atoms: _124  and  _127
REMARK   54  A    between atoms: _127  and  _128
REMARK   55  A    between atoms: _128  and  _129
REMARK   56  A    between atoms: _131  and  _133
REMARK   57  A    between atoms: _133  and  _134
REMARK   58  A    between atoms: _133  and  _136
REMARK   59  A    between atoms: _136  and  _137
REMARK   60  A    between atoms: _147  and  _149
REMARK   61  A    between atoms: _149  and  _150
REMARK   62  A    between atoms: _149  and  _152
REMARK   63  A    between atoms: _152  and  _153
REMARK   64  A    between atoms: _158  and  _160
REMARK   65  A    between atoms: _160  and  _161
REMARK   66  A    between atoms: _160  and  _163
REMARK   67  A    between atoms: _163  and  _164
REMARK   68  A    between atoms: _174  and  _176
REMARK   69  A    between atoms: _176  and  _177
REMARK   70  A    between atoms: _176  and  _179
REMARK   71  A    between atoms: _179  and  _180
REMARK   72  A    between atoms: _185  and  _186
REMARK   73  A    between atoms: _188  and  _190
REMARK   74  A    between atoms: _190  and  _191
REMARK   75  A    between atoms: _193  and  _195
REMARK   76  A    between atoms: _195  and  _196
REMARK   77  A    between atoms: _198  and  _200
REMARK   78  A    between atoms: _200  and  _201
REMARK   79  A    between atoms: _203  and  _205
REMARK   80  A    between atoms: _205  and  _206
REMARK   81  A    between atoms: _205  and  _208
REMARK   82  A    between atoms: _208  and  _209
REMARK   83  A    between atoms: _215  and  _217
REMARK   84  A    between atoms: _217  and  _218
REMARK   85  A    between atoms: _217  and  _220
REMARK   86  A    between atoms: _220  and  _221
REMARK   87  A    between atoms: _226  and  _227
REMARK   88  A    between atoms: _229  and  _231
REMARK   89  A    between atoms: _231  and  _232
REMARK   90  A    between atoms: _231  and  _234
REMARK   91  A    between atoms: _234  and  _235
REMARK   92  A    between atoms: _237  and  _239
REMARK   93  A    between atoms: _239  and  _240
REMARK   94  A    between atoms: _242  and  _244
REMARK   95  A    between atoms: _244  and  _245
REMARK   96  A    between atoms: _248  and  _250
REMARK   97  A    between atoms: _250  and  _251
REMARK   98  A    between atoms: _250  and  _253
REMARK   99  A    between atoms: _253  and  _254
REMARK  100  A    between atoms: _257  and  _259
REMARK  101  A    between atoms: _259  and  _260
REMARK  102  A    between atoms: _259  and  _262
REMARK  103  A    between atoms: _265  and  _267
REMARK  104  A    between atoms: _267  and  _268
REMARK  105  A    between atoms: _267  and  _270
REMARK  106  A    between atoms: _270  and  _271
REMARK  107  A    between atoms: _276  and  _277
REMARK  108  A    between atoms: _279  and  _281
REMARK  109  A    between atoms: _281  and  _282
REMARK  110  A    between atoms: _281  and  _284
REMARK  111  A    between atoms: _284  and  _285
REMARK  112  A    between atoms: _290  and  _291
REMARK  113  A    between atoms: _293  and  _295
REMARK  114  A    between atoms: _295  and  _296
REMARK  115  A    between atoms: _295  and  _298
REMARK  116  A    between atoms: _298  and  _299
REMARK  117  A    between atoms: _299  and  _300
REMARK  118  A    between atoms: _303  and  _305
REMARK  119  A    between atoms: _305  and  _306
REMARK  120  A    between atoms: _305  and  _308
REMARK  121  A    between atoms: _308  and  _309
REMARK  122  A    between atoms: _311  and  _313
REMARK  123  A    between atoms: _313  and  _314
REMARK  124  A    between atoms: _317  and  _319
REMARK  125  A    between atoms: _319  and  _320
REMARK  126  A    between atoms: _322  and  _324
REMARK  127  A    between atoms: _324  and  _325
REMARK  128  A    between atoms: _328  and  _330
REMARK  129  A    between atoms: _330  and  _331
REMARK  130  A    between atoms: _330  and  _333
REMARK  131  A    between atoms: _333  and  _334
REMARK  132  A    between atoms: _336  and  _338
REMARK  133  A    between atoms: _338  and  _339
REMARK  134  A    between atoms: _338  and  _341
REMARK  135  A    between atoms: _344  and  _346
REMARK  136  A    between atoms: _346  and  _347
REMARK  137  A    between atoms: _346  and  _349
REMARK  138  A    between atoms: _349  and  _350
REMARK  139  A    between atoms: _353  and  _355
REMARK  140  A    between atoms: _355  and  _356
REMARK  141  A    between atoms: _355  and  _358
REMARK  142  A    between atoms: _358  and  _359
REMARK  143  A    between atoms: _364  and  _366
REMARK  144  A    between atoms: _366  and  _367
REMARK  145  A    between atoms: _366  and  _369
REMARK  146  A    between atoms: _369  and  _370
REMARK  147  A    between atoms: _370  and  _371
REMARK  148  A    between atoms: _374  and  _376
REMARK  149  A    between atoms: _376  and  _377
REMARK  150  A    between atoms: _376  and  _379
REMARK  151  A    between atoms: _379  and  _380
REMARK  152  A    between atoms: _390  and  _392
REMARK  153  A    between atoms: _392  and  _393
REMARK  154  A    between atoms: _392  and  _395
REMARK  155  A    between atoms: _395  and  _396
REMARK  156  A    between atoms: _401  and  _403
REMARK  157  A    between atoms: _403  and  _404
REMARK  158  A    between atoms: _403  and  _406
REMARK  159  A    between atoms: _409  and  _411
REMARK  160  A    between atoms: _411  and  _412
REMARK  161  A    between atoms: _411  and  _414
REMARK  162  A    between atoms: _414  and  _415
REMARK  163  A    between atoms: _419  and  _420
REMARK  164  A    between atoms: _425  and  _427
REMARK  165  A    between atoms: _427  and  _428
REMARK  166  A    between atoms: _427  and  _430
REMARK  167  A    between atoms: _430  and  _431
REMARK  168  A    between atoms: _431  and  _432
REMARK  169  A    between atoms: _437  and  _439
REMARK  170  A    between atoms: _439  and  _440
REMARK  171  A    between atoms: _439  and  _442
REMARK  172  A    between atoms: _442  and  _443
REMARK  173  A    between atoms: _443  and  _444
REMARK  174  A    between atoms: _447  and  _449
REMARK  175  A    between atoms: _449  and  _450
REMARK  176  A    between atoms: _449  and  _452
REMARK  177  A    between atoms: _452  and  _453
REMARK  178  A    between atoms: _455  and  _457
REMARK  179  A    between atoms: _457  and  _458
REMARK  180  A    between atoms: _457  and  _460
REMARK  181  A    between atoms: _460  and  _461
REMARK  182  A    between atoms: _464  and  _466
REMARK  183  A    between atoms: _466  and  _467
REMARK  184  A    between atoms: _466  and  _469
REMARK  185  A    between atoms: _469  and  _470
REMARK  186  A    between atoms: _476  and  _478
REMARK  187  A    between atoms: _478  and  _479
REMARK  188  A    between atoms: _478  and  _481
REMARK  189  A    between atoms: _481  and  _482
REMARK  190  A    between atoms: _482  and  _483
REMARK  191  A    between atoms: _483  and  _484
REMARK  192  A    between atoms: _493  and  _495
REMARK  193  A    between atoms: _495  and  _496
REMARK  194  A    between atoms: _495  and  _498
REMARK  195  A    between atoms: _498  and  _499
REMARK  196  A    between atoms: _505  and  _507
REMARK  197  A    between atoms: _507  and  _508
REMARK  198  A    between atoms: _507  and  _510
REMARK  199  A    between atoms: _510  and  _511
REMARK  200  A    between atoms: _513  and  _515
REMARK  201  A    between atoms: _515  and  _516
REMARK  202  A    between atoms: _515  and  _518
REMARK  203  A    between atoms: _518  and  _519
REMARK  204  A    between atoms: _519  and  _520
REMARK  205  A    between atoms: _523  and  _525
REMARK  206  A    between atoms: _525  and  _526
REMARK  207  A    between atoms: _525  and  _528
REMARK  208  A    between atoms: _528  and  _529
REMARK  209  A    between atoms: _531  and  _533
REMARK  210  A    between atoms: _533  and  _534
REMARK  211  A    between atoms: _533  and  _536
REMARK  212  A    between atoms: _536  and  _537
REMARK  213  A    between atoms: _542  and  _543
REMARK  214  A    between atoms: _545  and  _547
REMARK  215  A    between atoms: _547  and  _548
REMARK  216  A    between atoms: _547  and  _550
REMARK  217  A    between atoms: _550  and  _551
REMARK  218  A    between atoms: _557  and  _559
REMARK  219  A    between atoms: _559  and  _560
REMARK  220  A    between atoms: _559  and  _562
REMARK  221  A    between atoms: _562  and  _563
REMARK  222  A    between atoms: _566  and  _568
REMARK  223  A    between atoms: _568  and  _569
REMARK  224  A    between atoms: _568  and  _571
REMARK  225  A    between atoms: _574  and  _576
REMARK  226  A    between atoms: _576  and  _577
REMARK  227  A    between atoms: _576  and  _579
REMARK  228  A    between atoms: _579  and  _580
REMARK  229  A    between atoms: _585  and  _586
REMARK  230  A    between atoms: _588  and  _590
REMARK  231  A    between atoms: _590  and  _591
REMARK  232  A    between atoms: _593  and  _595
REMARK  233  A    between atoms: _595  and  _596
REMARK  234  A    between atoms: _595  and  _598
REMARK  235  A    between atoms: _601  and  _603
REMARK  236  A    between atoms: _603  and  _604
REMARK  237  A    between atoms: _603  and  _606
REMARK  238  A    between atoms: _606  and  _607
REMARK  239  A    between atoms: _611  and  _612
REMARK  240  A    between atoms: _617  and  _619
REMARK  241  A    between atoms: _619  and  _620
REMARK  242  A    between atoms: _619  and  _622
REMARK  243  A    between atoms: _622  and  _623
REMARK  244  A    between atoms: _626  and  _628
REMARK  245  A    between atoms: _628  and  _629
REMARK  246  A    between atoms: _628  and  _631
REMARK  247  A    between atoms: _631  and  _632
REMARK  248  A    between atoms: _642  and  _644
REMARK  249  A    between atoms: _644  and  _645
REMARK  250  A    between atoms: _644  and  _647
REMARK  251  A    between atoms: _647  and  _648
REMARK  252  A    between atoms: _648  and  _649
REMARK  253  A    between atoms: _652  and  _653
REMARK  254  A    between atoms: _658  and  _660
REMARK  255  A    between atoms: _660  and  _661
REMARK  256  A    between atoms: _660  and  _663
REMARK  257  A    between atoms: _663  and  _664
REMARK  258  A    between atoms: _669  and  _671
REMARK  259  A    between atoms: _671  and  _672
REMARK  260  A    between atoms: _674  and  _676
REMARK  261  A    between atoms: _676  and  _677
REMARK  262  A    between atoms: _676  and  _679
REMARK  263  A    between atoms: _679  and  _680
REMARK  264  A    between atoms: _685  and  _686
REMARK  265  A    between atoms: _688  and  _690
REMARK  266  A    between atoms: _690  and  _691
REMARK  267  A    between atoms: _690  and  _693
REMARK  268  A    between atoms: _693  and  _694
REMARK  269  A    between atoms: _694  and  _695
REMARK  270  A    between atoms: _698  and  _700
REMARK  271  A    between atoms: _700  and  _701
REMARK  272  A    between atoms: _700  and  _703
REMARK  273  A    between atoms: _703  and  _704
REMARK                            x       y       z     vdW  Elec       q    Type
REMARK                         _______ _______ _______ _____ _____    ______ ____
ROOT
ATOM      1  CA  SER A   1      22.761  11.263  11.078  0.00  0.00    +0.163 C 
ENDROOT
BRANCH   1   2
ATOM      2  N   SER A   1      22.095  10.439  12.077  0.00  0.00    -0.237 NA
ATOM      3  H   SER A   1      21.294   9.845  11.781  0.00  0.00    +0.142 HD
ENDBRANCH   1   2
BRANCH   1   4
ATOM      4  C   SER A   1      24.262  10.965  10.993  0.00  0.00    +0.227 C 
ATOM      5  O   SER A   1      25.087  11.884  10.918  0.00  0.00    -0.287 OA
ENDBRANCH   1   4
BRANCH   1   6
ATOM      6  CB  SER A   1      22.512  12.761  11.348  0.00  0.00    +0.162 C 
BRANCH   6   7
ATOM      7  OG  SER A   1      21.109  13.075  11.351  0.00  0.00    -0.380 OA
ATOM      8  H   SER A   1      20.719  12.848  10.470  0.00  0.00    +0.211 HD
ENDBRANCH   6   7
ENDBRANCH   1   6
TORSDOF 4
REMARK  Name = ../refined-set-2016/1q84/1q84_pocket.pdb
REMARK  273 active torsions:
REMARK  status: ('A' for Active; 'I' for Inactive)
REMARK    1  A    between atoms: _1  and  _3
REMARK    2  A    between atoms: _3  and  _4
REMARK    3  A    between atoms: _3  and  _6
REMARK    4  A    between atoms: _6  and  _7
REMARK    5  A    between atoms: _7  and  _8
REMARK    6  A    between atoms: _13  and  _15
REMARK    7  A    between atoms: _15  and  _16
REMARK    8  A    between atoms: _15  and  _18
REMARK    9  A    between atoms: _18  and  _19
REMARK   10  A    between atoms: _24  and  _25
REMARK   11  A    between atoms: _27  and  _29
REMARK   12  A    between atoms: _29  and  _30
REMARK   13  A    between atoms: _29  and  _32
REMARK   14  A    between atoms: _35  and  _37
REMARK   15  A    between atoms: _37  and  _38
REMARK   16  A    between atoms: _37  and  _40
REMARK   17  A    between atoms: _40  and  _41
REMARK   18  A    between atoms: _44  and  _46
REMARK   19  A    between atoms: _46  and  _47
REMARK   20  A    between atoms: _46  and  _49
REMARK   21  A    between atoms: _49  and  _50
REMARK   22  A    between atoms: _53  and  _55
REMARK   23  A    between atoms: _55  and  _56
REMARK   24  A    between atoms: _55  and  _58
REMARK   25  A    between atoms: _58  and  _59
REMARK   26  A    between atoms: _62  and  _64
REMARK   27  A    between atoms: _64  and  _65
REMARK   28  A    between atoms: _64  and  _67
REMARK   29  A    between atoms: _67  and  _68
REMARK   30  A    between atoms: _73  and  _74
REMARK   31  A    between atoms: _76  and  _78
REMARK   32  A    between atoms: _78  and  _79
REMARK   33  A    between atoms: _78  and  _81
REMARK   34  A    between atoms: _81  and  _82
REMARK   35  A    between atoms: _88  and  _90
REMARK   36  A    between atoms: _90  and  _91
REMARK   37  A    between atoms: _90  and  _93
REMARK   38  A    between atoms: _93  and  _94
REMARK   39  A    between atoms: _94  and  _95
REMARK   40  A    between atoms: _98  and  _100
REMARK   41  A    between atoms: _100  and  _101
REMARK   42  A    between atoms: _103  and  _105
REMARK   43  A    between atoms: _105  and  _106
REMARK   44  A    between atoms: _105  and  _108
REMARK   45  A    between atoms: _108  and  _109
REMARK   46  A    between atoms: _112  and  _114
REMARK   47  A    between atoms: _114  and  _115
REMARK   48  A    between atoms: _114  and  _117
REMARK   49  A    between atoms: _117  and  _118
REMARK   50  A    between atoms: _118  and  _119
REMARK   51  A    between atoms: _122  and  _124
REMARK   52  A    between atoms: _124  and  _125
REMARK   53  A    between atoms: _124  and  _127
REMARK   54  A    between atoms: _127  and  _128
REMARK   55  A    between atoms: _128  and  _129
REMARK   56  A    between atoms: _131  and  _133
REMARK   57  A    between atoms: _133  and  _134
REMARK   58  A    between atoms: _133  and  _136
REMARK   59  A    between atoms: _136  and  _137
REMARK   60  A    between atoms: _147  and  _149
REMARK   61  A    between atoms: _149  and  _150
REMARK   62  A    between atoms: _149  and  _152
REMARK   63  A    between atoms: _152  and  _153
REMARK   64  A    between atoms: _158  and  _160
REMARK   65  A    between atoms: _160  and  _161
REMARK   66  A    between atoms: _160  and  _163
REMARK   67  A    between atoms: _163  and  _164
REMARK   68  A    between atoms: _174  and  _176
REMARK   69  A    between atoms: _176  and  _177
REMARK   70  A    between atoms: _176  and  _179
REMARK   71  A    between atoms: _179  and  _180
REMARK   72  A    between atoms: _185  and  _186
REMARK   73  A    between atoms: _188  and  _190
REMARK   74  A    between atoms: _190  and  _191
REMARK   75  A    between atoms: _193  and  _195
REMARK   76  A    between atoms: _195  and  _196
REMARK   77  A    between atoms: _198  and  _200
REMARK   78  A    between atoms: _200  and  _201
REMARK   79  A    between atoms: _203  and  _205
REMARK   80  A    between atoms: _205  and  _206
REMARK   81  A    between atoms: _205  and  _208
REMARK   82  A    between atoms: _208  and  _209
REMARK   83  A    between atoms: _215  and  _217
REMARK   84  A    between atoms: _217  and  _218
REMARK   85  A    between atoms: _217  and  _220
REMARK   86  A    between atoms: _220  and  _221
REMARK   87  A    between atoms: _226  and  _227
REMARK   88  A    between atoms: _229  and  _231
REMARK   89  A    between atoms: _231  and  _232
REMARK   90  A    between atoms: _231  and  _234
REMARK   91  A    between atoms: _234  and  _235
REMARK   92  A    between atoms: _237  and  _239
REMARK   93  A    between atoms: _239  and  _240
REMARK   94  A    between atoms: _242  and  _244
REMARK   95  A    between atoms: _244  and  _245
REMARK   96  A    between atoms: _248  and  _250
REMARK   97  A    between atoms: _250  and  _251
REMARK   98  A    between atoms: _250  and  _253
REMARK   99  A    between atoms: _253  and  _254
REMARK  100  A    between atoms: _257  and  _259
REMARK  101  A    between atoms: _259  and  _260
REMARK  102  A    between atoms: _259  and  _262
REMARK  103  A    between atoms: _265  and  _267
REMARK  104  A    between atoms: _267  and  _268
REMARK  105  A    between atoms: _267  and  _270
REMARK  106  A    between atoms: _270  and  _271
REMARK  107  A    between atoms: _276  and  _277
REMARK  108  A    between atoms: _279  and  _281
REMARK  109  A    between atoms: _281  and  _282
REMARK  110  A    between atoms: _281  and  _284
REMARK  111  A    between atoms: _284  and  _285
REMARK  112  A    between atoms: _290  and  _291
REMARK  113  A    between atoms: _293  and  _295
REMARK  114  A    between atoms: _295  and  _296
REMARK  115  A    between atoms: _295  and  _298
REMARK  116  A    between atoms: _298  and  _299
REMARK  117  A    between atoms: _299  and  _300
REMARK  118  A    between atoms: _303  and  _305
REMARK  119  A    between atoms: _305  and  _306
REMARK  120  A    between atoms: _305  and  _308
REMARK  121  A    between atoms: _308  and  _309
REMARK  122  A    between atoms: _311  and  _313
REMARK  123  A    between atoms: _313  and  _314
REMARK  124  A    between atoms: _317  and  _319
REMARK  125  A    between atoms: _319  and  _320
REMARK  126  A    between atoms: _322  and  _324
REMARK  127  A    between atoms: _324  and  _325
REMARK  128  A    between atoms: _328  and  _330
REMARK  129  A    between atoms: _330  and  _331
REMARK  130  A    between atoms: _330  and  _333
REMARK  131  A    between atoms: _333  and  _334
REMARK  132  A    between atoms: _336  and  _338
REMARK  133  A    between atoms: _338  and  _339
REMARK  134  A    between atoms: _338  and  _341
REMARK  135  A    between atoms: _344  and  _346
REMARK  136  A    between atoms: _346  and  _347
REMARK  137  A    between atoms: _346  and  _349
REMARK  138  A    between atoms: _349  and  _350
REMARK  139  A    between atoms: _353  and  _355
REMARK  140  A    between atoms: _355  and  _356
REMARK  141  A    between atoms: _355  and  _358
REMARK  142  A    between atoms: _358  and  _359
REMARK  143  A    between atoms: _364  and  _366
REMARK  144  A    between atoms: _366  and  _367
REMARK  145  A    between atoms: _366  and  _369
REMARK  146  A    between atoms: _369  and  _370
REMARK  147  A    between atoms: _370  and  _371
REMARK  148  A    between atoms: _374  and  _376
REMARK  149  A    between atoms: _376  and  _377
REMARK  150  A    between atoms: _376  and  _379
REMARK  151  A    between atoms: _379  and  _380
REMARK  152  A    between atoms: _390  and  _392
REMARK  153  A    between atoms: _392  and  _393
REMARK  154  A    between atoms: _392  and  _395
REMARK  155  A    between atoms: _395  and  _396
REMARK  156  A    between atoms: _401  and  _403
REMARK  157  A    between atoms: _403  and  _404
REMARK  158  A    between atoms: _403  and  _406
REMARK  159  A    between atoms: _409  and  _411
REMARK  160  A    between atoms: _411  and  _412
REMARK  161  A    between atoms: _411  and  _414
REMARK  162  A    between atoms: _414  and  _415
REMARK  163  A    between atoms: _419  and  _420
REMARK  164  A    between atoms: _425  and  _427
REMARK  165  A    between atoms: _427  and  _428
REMARK  166  A    between atoms: _427  and  _430
REMARK  167  A    between atoms: _430  and  _431
REMARK  168  A    between atoms: _431  and  _432
REMARK  169  A    between atoms: _437  and  _439
REMARK  170  A    between atoms: _439  and  _440
REMARK  171  A    between atoms: _439  and  _442
REMARK  172  A    between atoms: _442  and  _443
REMARK  173  A    between atoms: _443  and  _444
REMARK  174  A    between atoms: _447  and  _449
REMARK  175  A    between atoms: _449  and  _450
REMARK  176  A    between atoms: _449  and  _452
REMARK  177  A    between atoms: _452  and  _453
REMARK  178  A    between atoms: _455  and  _457
REMARK  179  A    between atoms: _457  and  _458
REMARK  180  A    between atoms: _457  and  _460
REMARK  181  A    between atoms: _460  and  _461
REMARK  182  A    between atoms: _464  and  _466
REMARK  183  A    between atoms: _466  and  _467
REMARK  184  A    between atoms: _466  and  _469
REMARK  185  A    between atoms: _469  and  _470
REMARK  186  A    between atoms: _476  and  _478
REMARK  187  A    between atoms: _478  and  _479
REMARK  188  A    between atoms: _478  and  _481
REMARK  189  A    between atoms: _481  and  _482
REMARK  190  A    between atoms: _482  and  _483
REMARK  191  A    between atoms: _483  and  _484
REMARK  192  A    between atoms: _493  and  _495
REMARK  193  A    between atoms: _495  and  _496
REMARK  194  A    between atoms: _495  and  _498
REMARK  195  A    between atoms: _498  and  _499
REMARK  196  A    between atoms: _505  and  _507
REMARK  197  A    between atoms: _507  and  _508
REMARK  198  A    between atoms: _507  and  _510
REMARK  199  A    between atoms: _510  and  _511
REMARK  200  A    between atoms: _513  and  _515
REMARK  201  A    between atoms: _515  and  _516
REMARK  202  A    between atoms: _515  and  _518
REMARK  203  A    between atoms: _518  and  _519
REMARK  204  A    between atoms: _519  and  _520
REMARK  205  A    between atoms: _523  and  _525
REMARK  206  A    between atoms: _525  and  _526
REMARK  207  A    between atoms: _525  and  _528
REMARK  208  A    between atoms: _528  and  _529
REMARK  209  A    between atoms: _531  and  _533
REMARK  210  A    between atoms: _533  and  _534
REMARK  211  A    between atoms: _533  and  _536
REMARK  212  A    between atoms: _536  and  _537
REMARK  213  A    between atoms: _542  and  _543
REMARK  214  A    between atoms: _545  and  _547
REMARK  215  A    between atoms: _547  and  _548
REMARK  216  A    between atoms: _547  and  _550
REMARK  217  A    between atoms: _550  and  _551
REMARK  218  A    between atoms: _557  and  _559
REMARK  219  A    between atoms: _559  and  _560
REMARK  220  A    between atoms: _559  and  _562
REMARK  221  A    between atoms: _562  and  _563
REMARK  222  A    between atoms: _566  and  _568
REMARK  223  A    between atoms: _568  and  _569
REMARK  224  A    between atoms: _568  and  _571
REMARK  225  A    between atoms: _574  and  _576
REMARK  226  A    between atoms: _576  and  _577
REMARK  227  A    between atoms: _576  and  _579
REMARK  228  A    between atoms: _579  and  _580
REMARK  229  A    between atoms: _585  and  _586
REMARK  230  A    between atoms: _588  and  _590
REMARK  231  A    between atoms: _590  and  _591
REMARK  232  A    between atoms: _593  and  _595
REMARK  233  A    between atoms: _595  and  _596
REMARK  234  A    between atoms: _595  and  _598
REMARK  235  A    between atoms: _601  and  _603
REMARK  236  A    between atoms: _603  and  _604
REMARK  237  A    between atoms: _603  and  _606
REMARK  238  A    between atoms: _606  and  _607
REMARK  239  A    between atoms: _611  and  _612
REMARK  240  A    between atoms: _617  and  _619
REMARK  241  A    between atoms: _619  and  _620
REMARK  242  A    between atoms: _619  and  _622
REMARK  243  A    between atoms: _622  and  _623
REMARK  244  A    between atoms: _626  and  _628
REMARK  245  A    between atoms: _628  and  _629
REMARK  246  A    between atoms: _628  and  _631
REMARK  247  A    between atoms: _631  and  _632
REMARK  248  A    between atoms: _642  and  _644
REMARK  249  A    between atoms: _644  and  _645
REMARK  250  A    between atoms: _644  and  _647
REMARK  251  A    between atoms: _647  and  _648
REMARK  252  A    between atoms: _648  and  _649
REMARK  253  A    between atoms: _652  and  _653
REMARK  254  A    between atoms: _658  and  _660
REMARK  255  A    between atoms: _660  and  _661
REMARK  256  A    between atoms: _660  and  _663
REMARK  257  A    between atoms: _663  and  _664
REMARK  258  A    between atoms: _669  and  _671
REMARK  259  A    between atoms: _671  and  _672
REMARK  260  A    between atoms: _674  and  _676
REMARK  261  A    between atoms: _676  and  _677
REMARK  262  A    between atoms: _676  and  _679
REMARK  263  A    between atoms: _679  and  _680
REMARK  264  A    between atoms: _685  and  _686
REMARK  265  A    between atoms: _688  and  _690
REMARK  266  A    between atoms: _690  and  _691
REMARK  267  A    between atoms: _690  and  _693
REMARK  268  A    between atoms: _693  and  _694
REMARK  269  A    between atoms: _694  and  _695
REMARK  270  A    between atoms: _698  and  _700
REMARK  271  A    between atoms: _700  and  _701
REMARK  272  A    between atoms: _700  and  _703
REMARK  273  A    between atoms: _703  and  _704
REMARK                            x       y       z     vdW  Elec       q    Type
REMARK                         _______ _______ _______ _____ _____    ______ ____
ROOT
ATOM      1  C   PRO A   9      43.348  17.278  -1.151  0.00  0.00    +0.241 C 
ATOM      2  N   GLN A  10      42.114  17.728  -0.933  0.00  0.00    -0.297 N 
ATOM      3  H   GLN A  10      41.626  17.447  -0.059  0.00  0.00    +0.150 HD
ATOM      4  O   PRO A   9      43.981  17.509  -2.172  0.00  0.00    -0.273 OA
ENDROOT
BRANCH   1  11
ATOM      5  C   LEU A   8      43.700  17.686   1.980  0.00  0.00    +0.244 C 
ATOM      6  O   LEU A   8      44.162  18.708   1.483  0.00  0.00    -0.273 OA
ATOM      7  N   PRO A   9      43.463  16.581   1.274  0.00  0.00    -0.272 N 
ATOM      8  CD  PRO A   9      42.591  15.457   1.679  0.00  0.00    +0.094 C 
ATOM      9  CG  PRO A   9      42.714  14.410   0.620  0.00  0.00    +0.024 C 
ATOM     10  CB  PRO A   9      43.816  14.900  -0.368  0.00  0.00    +0.031 C 
ATOM     11  CA  PRO A   9      44.015  16.406  -0.078  0.00  0.00    +0.152 C 
BRANCH   5  12
ATOM     12  CA  LEU A   8      43.279  17.682   3.447  0.00  0.00    +0.149 C 
BRANCH  12  14
ATOM     13  C   VAL A   7      45.455  17.806   4.497  0.00  0.00    +0.241 C 
ATOM     14  N   LEU A   8      44.289  18.384   4.256  0.00  0.00    -0.297 N 
ATOM     15  H   LEU A   8      44.087  19.331   4.637  0.00  0.00    +0.150 HD
ATOM     16  O   VAL A   7      45.722  16.691   4.057  0.00  0.00    -0.273 OA
BRANCH  13  17
ATOM     17  CA  VAL A   7      46.476  18.549   5.376  0.00  0.00    +0.149 C 
BRANCH  17  19
ATOM     18  C   HIS A   6      46.457  20.983   5.372  0.00  0.00    +0.241 C 
ATOM     19  N   VAL A   7      46.015  19.840   5.899  0.00  0.00    -0.297 N 
ATOM     20  H   VAL A   7      45.338  19.864   6.688  0.00  0.00    +0.150 HD
ATOM     21  O   HIS A   6      47.196  20.995   4.406  0.00  0.00    -0.273 OA
BRANCH  18  22
ATOM     22  CA  HIS A   6      45.982  22.322   5.981  0.00  0.00    +0.155 C 
BRANCH  22  24
ATOM     23  C   TRP A   5      43.828  22.007   7.065  0.00  0.00    +0.241 C 
ATOM     24  N   HIS A   6      45.131  22.220   7.175  0.00  0.00    -0.297 N 
ATOM     25  H   HIS A   6      45.557  22.316   8.119  0.00  0.00    +0.150 HD
ATOM     26  O   TRP A   5      43.294  21.820   5.988  0.00  0.00    -0.273 OA
BRANCH  23  27
ATOM     27  CA  TRP A   5      42.996  21.949   8.344  0.00  0.00    +0.153 C 
BRANCH  27  29
ATOM     28  C   GLU A   4      44.393  20.678   9.888  0.00  0.00    +0.241 C 
ATOM     29  N   TRP A   5      43.801  21.818   9.558  0.00  0.00    -0.297 N 
ATOM     30  H   TRP A   5      43.913  22.643  10.181  0.00  0.00    +0.150 HD
ATOM     31  O   GLU A   4      44.368  19.686   9.158  0.00  0.00    -0.273 OA
BRANCH  28  32
ATOM     32  CA  GLU A   4      45.162  20.686  11.230  0.00  0.00    +0.149 C 
BRANCH  32  34
ATOM     33  C   HIS A   3      46.882  22.247  10.515  0.00  0.00    +0.241 C 
ATOM     34  N   GLU A   4      46.017  21.849  11.417  0.00  0.00    -0.297 N 
ATOM     35  H   GLU A   4      45.939  22.387  12.303  0.00  0.00    +0.150 HD
ATOM     36  O   HIS A   3      47.014  21.701   9.430  0.00  0.00    -0.273 OA
BRANCH  33  37
ATOM     37  CA  HIS A   3      47.694  23.460  10.896  0.00  0.00    +0.155 C 
BRANCH  37  39
ATOM     38  C   ASP A   2      46.877  25.309  12.291  0.00  0.00    +0.241 C 
ATOM     39  N   HIS A   3      47.339  24.053  12.190  0.00  0.00    -0.297 N 
ATOM     40  H   HIS A   3      47.448  23.484  13.054  0.00  0.00    +0.150 HD
ATOM     41  O   ASP A   2      46.754  26.029  11.319  0.00  0.00    -0.273 OA
BRANCH  38  42
ATOM     42  CA  ASP A   2      46.489  25.885  13.680  0.00  0.00    +0.160 C 
BRANCH  42  44
ATOM     43  C   VAL A   1      45.315  23.973  14.704  0.00  0.00    +0.238 C 
ATOM     44  N   ASP A   2      46.298  24.870  14.750  0.00  0.00    -0.297 N 
ATOM     45  H   ASP A   2      46.952  24.860  15.559  0.00  0.00    +0.150 HD
ATOM     46  O   VAL A   1      44.494  23.918  13.766  0.00  0.00    -0.274 OA
BRANCH  43  47
ATOM     47  CA  VAL A   1      45.241  22.960  15.854  0.00  0.00    +0.145 C 
BRANCH  47  48
ATOM     48  CB  VAL A   1      44.400  23.538  17.065  0.00  0.00    +0.025 C 
ATOM     49  CG2 VAL A   1      44.073  22.441  18.075  0.00  0.00    +0.002 C 
ATOM     50  CG1 VAL A   1      43.091  24.208  16.629  0.00  0.00    +0.002 C 
ENDBRANCH  47  48
BRANCH  47  51
ATOM     51  N   VAL A   1      46.560  22.480  16.306  0.00  0.00    -0.238 NA
ATOM     52  H   VAL A   1      46.858  22.685  17.281  0.00  0.00    +0.142 HD
ENDBRANCH  47  51
ENDBRANCH  43  47
ENDBRANCH  42  44
BRANCH  42  53
ATOM     53  CB  ASP A   2      47.499  26.967  14.106  0.00  0.00    +0.143 C 
BRANCH  53  54
ATOM     54  CG  ASP A   2      46.993  27.869  15.281  0.00  0.00    +0.367 C 
ATOM     55  OD2 ASP A   2      47.785  28.679  15.857  0.00  0.00    -0.246 OA
ATOM     56  OD1 ASP A   2      45.790  27.799  15.697  0.00  0.00    -0.246 OA
ENDBRANCH  53  54
ENDBRANCH  42  53
ENDBRANCH  38  42
ENDBRANCH  37  39
BRANCH  37  57
ATOM     57  CB  HIS A   3      49.185  23.139  10.895  0.00  0.00    +0.076 C 
BRANCH  57  58
ATOM     58  CG  HIS A   3      50.030  24.359  11.013  0.00  0.00    +0.082 A 
ATOM     59  ND1 HIS A   3      50.576  24.763  12.209  0.00  0.00    -0.227 NA
ATOM     60  CE1 HIS A   3      51.226  25.901  12.024  0.00  0.00    +0.199 A 
ATOM     61  NE2 HIS A   3      51.087  26.263  10.757  0.00  0.00    -0.221 NA
ATOM     62  CD2 HIS A   3      50.332  25.321  10.107  0.00  0.00    +0.115 A 
ENDBRANCH  57  58
ENDBRANCH  37  57
ENDBRANCH  33  37
ENDBRANCH  32  34
BRANCH  32  63
ATOM     63  CB  GLU A   4      44.186  20.684  12.397  0.00  0.00    +0.041 C 
BRANCH  63  64
ATOM     64  CG  GLU A   4      43.406  19.426  12.557  0.00  0.00    +0.116 C 
BRANCH  64  65
ATOM     65  CD  GLU A   4      42.321  19.577  13.589  0.00  0.00    +0.365 C 
ATOM     66  OE2 GLU A   4      42.500  20.310  14.584  0.00  0.00    -0.246 OA
ATOM     67  OE1 GLU A   4      41.284  18.950  13.381  0.00  0.00    -0.246 OA
ENDBRANCH  64  65
ENDBRANCH  63  64
ENDBRANCH  32  63
ENDBRANCH  28  32
ENDBRANCH  27  29
BRANCH  27  68
ATOM     68  CB  TRP A   5      42.025  23.152   8.461  0.00  0.00    +0.057 C 
BRANCH  68  69
ATOM     69  CG  TRP A   5      40.919  22.809   9.414  0.00  0.00    -0.002 A 
ATOM     70  CD1 TRP A   5      40.789  23.178  10.753  0.00  0.00    +0.068 A 
ATOM     71  NE1 TRP A   5      39.677  22.578  11.292  0.00  0.00    -0.352 N 
ATOM     72  HE1 TRP A   5      39.348  22.684  12.273  0.00  0.00    +0.166 HD
ATOM     73  CE2 TRP A   5      39.072  21.817  10.327  0.00  0.00    +0.056 A 
ATOM     74  CZ2 TRP A   5      37.929  21.042  10.392  0.00  0.00    +0.017 A 
ATOM     75  CH2 TRP A   5      37.552  20.375   9.250  0.00  0.00    +0.001 A 
ATOM     76  CZ3 TRP A   5      38.296  20.461   8.068  0.00  0.00    +0.000 A 
ATOM     77  CE3 TRP A   5      39.422  21.238   7.999  0.00  0.00    +0.001 A 
ATOM     78  CD2 TRP A   5      39.834  21.939   9.138  0.00  0.00    +0.013 A 
ENDBRANCH  68  69
ENDBRANCH  27  68
ENDBRANCH  23  27
ENDBRANCH  22  24
BRANCH  22  79
ATOM     79  CB  HIS A   6      47.166  23.266   6.278  0.00  0.00    +0.076 C 
BRANCH  79  80
ATOM     80  CG  HIS A   6      46.738  24.642   6.708  0.00  0.00    +0.082 A 
ATOM     81  ND1 HIS A   6      47.379  25.352   7.703  0.00  0.00    -0.227 NA
ATOM     82  CE1 HIS A   6      46.771  26.513   7.876  0.00  0.00    +0.199 A 
ATOM     83  NE2 HIS A   6      45.761  26.586   7.027  0.00  0.00    -0.221 NA
ATOM     84  CD2 HIS A   6      45.723  25.434   6.279  0.00  0.00    +0.115 A 
ENDBRANCH  79  80
ENDBRANCH  22  79
ENDBRANCH  18  22
ENDBRANCH  17  19
BRANCH  17  85
ATOM     85  CB  VAL A   7      46.966  17.613   6.525  0.00  0.00    +0.027 C 
ATOM     86  CG2 VAL A   7      47.962  18.329   7.418  0.00  0.00    +0.002 C 
ATOM     87  CG1 VAL A   7      45.801  17.054   7.336  0.00  0.00    +0.002 C 
ENDBRANCH  17  85
ENDBRANCH  13  17
ENDBRANCH  12  14
BRANCH  12  88
ATOM     88  CB  LEU A   8      41.884  18.324   3.561  0.00  0.00    +0.029 C 
BRANCH  88  89
ATOM     89  CG  LEU A   8      41.067  17.971   4.807  0.00  0.00    +0.002 C 
ATOM     90  CD2 LEU A   8      39.906  18.962   4.943  0.00  0.00    +0.000 C 
ATOM     91  CD1 LEU A   8      40.571  16.562   4.777  0.00  0.00    +0.000 C 
ENDBRANCH  88  89
ENDBRANCH  12  88
ENDBRANCH   5  12
ENDBRANCH   1  11
BRANCH   2  92
ATOM     92  CA  GLN A  10      41.416  18.606  -1.880  0.00  0.00    +0.149 C 
BRANCH  92  93
ATOM     93  C   GLN A  10      40.684  19.742  -1.144  0.00  0.00    +0.241 C 
ATOM     94  O   GLN A  10      40.596  19.750   0.086  0.00  0.00    -0.273 OA
ATOM     95  N   GLU A  11      40.193  20.712  -1.914  0.00  0.00    -0.297 N 
ATOM     96  H   GLU A  11      40.542  20.788  -2.891  0.00  0.00    +0.150 HD
BRANCH  95  97
ATOM     97  CA  GLU A  11      39.187  21.680  -1.460  0.00  0.00    +0.149 C 
BRANCH  97  98
ATOM     98  C   GLU A  11      37.916  20.855  -1.266  0.00  0.00    +0.241 C 
ATOM     99  N   SER A  12      37.298  20.927  -0.095  0.00  0.00    -0.295 N 
ATOM    100  H   SER A  12      37.605  21.617   0.620  0.00  0.00    +0.150 HD
ATOM    101  O   GLU A  11      37.515  20.111  -2.164  0.00  0.00    -0.273 OA
BRANCH  99 102
ATOM    102  CA  SER A  12      36.181  20.026   0.180  0.00  0.00    +0.178 C 
BRANCH 102 103
ATOM    103  C   SER A  12      35.284  20.461   1.325  0.00  0.00    +0.243 C 
ATOM    104  O   SER A  12      35.657  21.293   2.135  0.00  0.00    -0.273 OA
ATOM    105  N   ILE A  13      34.090  19.888   1.383  0.00  0.00    -0.297 N 
ATOM    106  H   ILE A  13      33.732  19.357   0.563  0.00  0.00    +0.150 HD
BRANCH 105 107
ATOM    107  CA  ILE A  13      33.273  19.996   2.589  0.00  0.00    +0.149 C 
BRANCH 107 108
ATOM    108  C   ILE A  13      32.908  18.607   3.093  0.00  0.00    +0.241 C 
ATOM    109  N   PHE A  14      32.470  18.539   4.344  0.00  0.00    -0.297 N 
ATOM    110  H   PHE A  14      32.342  19.429   4.867  0.00  0.00    +0.150 HD
ATOM    111  O   ILE A  13      33.072  17.640   2.388  0.00  0.00    -0.273 OA
BRANCH 109 112
ATOM    112  CA  PHE A  14      32.159  17.296   5.024  0.00  0.00    +0.153 C 
BRANCH 112 113
ATOM    113  C   PHE A  14      33.354  16.317   4.944  0.00  0.00    +0.241 C 
ATOM    114  N   ARG A  15      34.558  16.885   5.044  0.00  0.00    -0.297 N 
ATOM    115  H   ARG A  15      34.628  17.922   5.000  0.00  0.00    +0.150 HD
ATOM    116  O   PHE A  14      33.177  15.102   4.767  0.00  0.00    -0.273 OA
BRANCH 114 117
ATOM    117  CA  ARG A  15      35.780  16.103   5.213  0.00  0.00    +0.149 C 
BRANCH 117 118
ATOM    118  C   ARG A  15      36.589  16.690   6.366  0.00  0.00    +0.241 C 
ATOM    119  N   PHE A  16      37.170  15.783   7.136  0.00  0.00    -0.297 N 
ATOM    120  H   PHE A  16      37.101  14.781   6.866  0.00  0.00    +0.150 HD
ATOM    121  O   ARG A  15      36.683  17.905   6.549  0.00  0.00    -0.273 OA
BRANCH 119 122
ATOM    122  CA  PHE A  16      37.887  16.124   8.322  0.00  0.00    +0.153 C 
BRANCH 122 123
ATOM    123  C   PHE A  16      39.230  15.418   8.288  0.00  0.00    +0.241 C 
ATOM    124  N   SER A  17      40.246  16.113   8.768  0.00  0.00    -0.296 N 
ATOM    125  H   SER A  17      40.039  17.004   9.263  0.00  0.00    +0.150 HD
ATOM    126  O   PHE A  16      39.340  14.287   7.828  0.00  0.00    -0.273 OA
BRANCH 124 127
ATOM    127  CA  SER A  17      41.615  15.712   8.647  0.00  0.00    +0.166 C 
BRANCH 127 128
ATOM    128  C   SER A  17      42.010  14.474   9.469  0.00  0.00    +0.229 C 
ATOM    129  O   SER A  17      42.709  13.599   8.977  0.00  0.00    -0.286 OA
ENDBRANCH 127 128
BRANCH 127 130
ATOM    130  CB  SER A  17      42.474  16.891   9.100  0.00  0.00    +0.165 C 
BRANCH 130 131
ATOM    131  OG  SER A  17      42.477  17.900   8.122  0.00  0.00    -0.380 OA
ATOM    132  H   SER A  17      43.037  18.656   8.431  0.00  0.00    +0.211 HD
ENDBRANCH 130 131
ENDBRANCH 127 130
ENDBRANCH 124 127
ENDBRANCH 122 123
BRANCH 122 133
ATOM    133  CB  PHE A  16      37.050  15.710   9.515  0.00  0.00    +0.055 C 
BRANCH 133 134
ATOM    134  CG  PHE A  16      35.587  15.996   9.349  0.00  0.00    -0.020 A 
ATOM    135  CD2 PHE A  16      35.088  17.284   9.544  0.00  0.00    -0.004 A 
ATOM    136  CE2 PHE A  16      33.717  17.545   9.401  0.00  0.00    -0.000 A 
ATOM    137  CZ  PHE A  16      32.833  16.542   9.048  0.00  0.00    -0.000 A 
ATOM    138  CE1 PHE A  16      33.329  15.258   8.819  0.00  0.00    -0.000 A 
ATOM    139  CD1 PHE A  16      34.705  14.988   9.004  0.00  0.00    -0.004 A 
ENDBRANCH 133 134
ENDBRANCH 122 133
ENDBRANCH 119 122
ENDBRANCH 117 118
BRANCH 117 140
ATOM    140  CB  ARG A  15      36.671  16.051   3.963  0.00  0.00    +0.033 C 
BRANCH 140 141
ATOM    141  CG  ARG A  15      36.071  15.396   2.776  0.00  0.00    +0.045 C 
BRANCH 141 142
ATOM    142  CD  ARG A  15      35.821  13.924   2.931  0.00  0.00    +0.174 C 
BRANCH 142 143
ATOM    143  NE  ARG A  15      35.267  13.370   1.690  0.00  0.00    -0.265 N 
ATOM    144  CZ  ARG A  15      33.973  13.241   1.429  0.00  0.00    +0.342 C 
ATOM    145  NH2 ARG A  15      33.045  13.653   2.282  0.00  0.00    -0.292 N 
ATOM    146 HH21 ARG A  15      33.324  14.091   3.183  0.00  0.00    +0.255 HD
ATOM    147 HH22 ARG A  15      32.038  13.539   2.050  0.00  0.00    +0.255 HD
ATOM    148  NH1 ARG A  15      33.595  12.723   0.270  0.00  0.00    -0.292 N 
ATOM    149 HH11 ARG A  15      32.583  12.617   0.053  0.00  0.00    +0.255 HD
ATOM    150 HH12 ARG A  15      34.310  12.423  -0.423  0.00  0.00    +0.255 HD
ATOM    151  HE  ARG A  15      35.939  13.055   0.961  0.00  0.00    +0.259 HD
ENDBRANCH 142 143
ENDBRANCH 141 142
ENDBRANCH 140 141
ENDBRANCH 117 140
ENDBRANCH 114 117
ENDBRANCH 112 113
BRANCH 112 152
ATOM    152  CB  PHE A  14      30.885  16.697   4.447  0.00  0.00    +0.055 C 
BRANCH 152 153
ATOM    153  CG  PHE A  14      30.012  16.056   5.459  0.00  0.00    -0.020 A 
ATOM    154  CD2 PHE A  14      30.540  15.209   6.428  0.00  0.00    -0.004 A 
ATOM    155  CE2 PHE A  14      29.733  14.598   7.332  0.00  0.00    -0.000 A 
ATOM    156  CZ  PHE A  14      28.350  14.837   7.320  0.00  0.00    -0.000 A 
ATOM    157  CE1 PHE A  14      27.801  15.660   6.356  0.00  0.00    -0.000 A 
ATOM    158  CD1 PHE A  14      28.623  16.264   5.426  0.00  0.00    -0.004 A 
ENDBRANCH 152 153
ENDBRANCH 112 152
ENDBRANCH 109 112
ENDBRANCH 107 108
BRANCH 107 159
ATOM    159  CB  ILE A  13      32.035  20.864   2.374  0.00  0.00    +0.027 C 
ATOM    160  CG2 ILE A  13      32.449  22.336   2.208  0.00  0.00    +0.002 C 
BRANCH 159 161
ATOM    161  CG1 ILE A  13      31.223  20.387   1.185  0.00  0.00    +0.002 C 
ATOM    162  CD1 ILE A  13      29.870  21.030   1.140  0.00  0.00    +0.000 C 
ENDBRANCH 159 161
ENDBRANCH 107 159
ENDBRANCH 105 107
ENDBRANCH 102 103
BRANCH 102 163
ATOM    163  CB  SER A  12      36.732  18.645   0.487  0.00  0.00    +0.166 C 
BRANCH 163 164
ATOM    164  OG  SER A  12      37.488  18.681   1.672  0.00  0.00    -0.380 OA
ATOM    165  H   SER A  12      37.843  17.777   1.863  0.00  0.00    +0.211 HD
ENDBRANCH 163 164
ENDBRANCH 102 163
ENDBRANCH  99 102
ENDBRANCH  97  98
BRANCH  97 166
ATOM    166  CB  GLU A  11      38.995  22.788  -2.511  0.00  0.00    +0.041 C 
BRANCH 166 167
ATOM    167  CG  GLU A  11      37.973  23.899  -2.178  0.00  0.00    +0.116 C 
BRANCH 167 168
ATOM    168  CD  GLU A  11      37.998  25.086  -3.168  0.00  0.00    +0.365 C 
ATOM    169  OE2 GLU A  11      36.981  25.839  -3.262  0.00  0.00    -0.246 OA
ATOM    170  OE1 GLU A  11      39.041  25.294  -3.859  0.00  0.00    -0.246 OA
ENDBRANCH 167 168
ENDBRANCH 166 167
ENDBRANCH  97 166
ENDBRANCH  95  97
ENDBRANCH  92  93
BRANCH  92 171
ATOM    171  CB  GLN A  10      40.398  17.795  -2.741  0.00  0.00    +0.039 C 
BRANCH 171 172
ATOM    172  CG  GLN A  10      40.966  16.537  -3.455  0.00  0.00    +0.087 C 
BRANCH 172 173
ATOM    173  CD  GLN A  10      40.849  15.260  -2.583  0.00  0.00    +0.219 C 
ATOM    174  NE2 GLN A  10      40.137  15.382  -1.436  0.00  0.00    -0.329 N 
ATOM    175 HE21 GLN A  10      40.030  14.565  -0.801  0.00  0.00    +0.145 HD
ATOM    176 HE22 GLN A  10      39.697  16.292  -1.191  0.00  0.00    +0.145 HD
ATOM    177  OE1 GLN A  10      41.402  14.183  -2.929  0.00  0.00    -0.275 OA
ENDBRANCH 172 173
ENDBRANCH 171 172
ENDBRANCH  92 171
ENDBRANCH   2  92
TORSDOF 68
REMARK  Name = ../refined-set-2016/1q84/1q84_pocket.pdb
REMARK  273 active torsions:
REMARK  status: ('A' for Active; 'I' for Inactive)
REMARK    1  A    between atoms: _1  and  _3
REMARK    2  A    between atoms: _3  and  _4
REMARK    3  A    between atoms: _3  and  _6
REMARK    4  A    between atoms: _6  and  _7
REMARK    5  A    between atoms: _7  and  _8
REMARK    6  A    between atoms: _13  and  _15
REMARK    7  A    between atoms: _15  and  _16
REMARK    8  A    between atoms: _15  and  _18
REMARK    9  A    between atoms: _18  and  _19
REMARK   10  A    between atoms: _24  and  _25
REMARK   11  A    between atoms: _27  and  _29
REMARK   12  A    between atoms: _29  and  _30
REMARK   13  A    between atoms: _29  and  _32
REMARK   14  A    between atoms: _35  and  _37
REMARK   15  A    between atoms: _37  and  _38
REMARK   16  A    between atoms: _37  and  _40
REMARK   17  A    between atoms: _40  and  _41
REMARK   18  A    between atoms: _44  and  _46
REMARK   19  A    between atoms: _46  and  _47
REMARK   20  A    between atoms: _46  and  _49
REMARK   21  A    between atoms: _49  and  _50
REMARK   22  A    between atoms: _53  and  _55
REMARK   23  A    between atoms: _55  and  _56
REMARK   24  A    between atoms: _55  and  _58
REMARK   25  A    between atoms: _58  and  _59
REMARK   26  A    between atoms: _62  and  _64
REMARK   27  A    between atoms: _64  and  _65
REMARK   28  A    between atoms: _64  and  _67
REMARK   29  A    between atoms: _67  and  _68
REMARK   30  A    between atoms: _73  and  _74
REMARK   31  A    between atoms: _76  and  _78
REMARK   32  A    between atoms: _78  and  _79
REMARK   33  A    between atoms: _78  and  _81
REMARK   34  A    between atoms: _81  and  _82
REMARK   35  A    between atoms: _88  and  _90
REMARK   36  A    between atoms: _90  and  _91
REMARK   37  A    between atoms: _90  and  _93
REMARK   38  A    between atoms: _93  and  _94
REMARK   39  A    between atoms: _94  and  _95
REMARK   40  A    between atoms: _98  and  _100
REMARK   41  A    between atoms: _100  and  _101
REMARK   42  A    between atoms: _103  and  _105
REMARK   43  A    between atoms: _105  and  _106
REMARK   44  A    between atoms: _105  and  _108
REMARK   45  A    between atoms: _108  and  _109
REMARK   46  A    between atoms: _112  and  _114
REMARK   47  A    between atoms: _114  and  _115
REMARK   48  A    between atoms: _114  and  _117
REMARK   49  A    between atoms: _117  and  _118
REMARK   50  A    between atoms: _118  and  _119
REMARK   51  A    between atoms: _122  and  _124
REMARK   52  A    between atoms: _124  and  _125
REMARK   53  A    between atoms: _124  and  _127
REMARK   54  A    between atoms: _127  and  _128
REMARK   55  A    between atoms: _128  and  _129
REMARK   56  A    between atoms: _131  and  _133
REMARK   57  A    between atoms: _133  and  _134
REMARK   58  A    between atoms: _133  and  _136
REMARK   59  A    between atoms: _136  and  _137
REMARK   60  A    between atoms: _147  and  _149
REMARK   61  A    between atoms: _149  and  _150
REMARK   62  A    between atoms: _149  and  _152
REMARK   63  A    between atoms: _152  and  _153
REMARK   64  A    between atoms: _158  and  _160
REMARK   65  A    between atoms: _160  and  _161
REMARK   66  A    between atoms: _160  and  _163
REMARK   67  A    between atoms: _163  and  _164
REMARK   68  A    between atoms: _174  and  _176
REMARK   69  A    between atoms: _176  and  _177
REMARK   70  A    between atoms: _176  and  _179
REMARK   71  A    between atoms: _179  and  _180
REMARK   72  A    between atoms: _185  and  _186
REMARK   73  A    between atoms: _188  and  _190
REMARK   74  A    between atoms: _190  and  _191
REMARK   75  A    between atoms: _193  and  _195
REMARK   76  A    between atoms: _195  and  _196
REMARK   77  A    between atoms: _198  and  _200
REMARK   78  A    between atoms: _200  and  _201
REMARK   79  A    between atoms: _203  and  _205
REMARK   80  A    between atoms: _205  and  _206
REMARK   81  A    between atoms: _205  and  _208
REMARK   82  A    between atoms: _208  and  _209
REMARK   83  A    between atoms: _215  and  _217
REMARK   84  A    between atoms: _217  and  _218
REMARK   85  A    between atoms: _217  and  _220
REMARK   86  A    between atoms: _220  and  _221
REMARK   87  A    between atoms: _226  and  _227
REMARK   88  A    between atoms: _229  and  _231
REMARK   89  A    between atoms: _231  and  _232
REMARK   90  A    between atoms: _231  and  _234
REMARK   91  A    between atoms: _234  and  _235
REMARK   92  A    between atoms: _237  and  _239
REMARK   93  A    between atoms: _239  and  _240
REMARK   94  A    between atoms: _242  and  _244
REMARK   95  A    between atoms: _244  and  _245
REMARK   96  A    between atoms: _248  and  _250
REMARK   97  A    between atoms: _250  and  _251
REMARK   98  A    between atoms: _250  and  _253
REMARK   99  A    between atoms: _253  and  _254
REMARK  100  A    between atoms: _257  and  _259
REMARK  101  A    between atoms: _259  and  _260
REMARK  102  A    between atoms: _259  and  _262
REMARK  103  A    between atoms: _265  and  _267
REMARK  104  A    between atoms: _267  and  _268
REMARK  105  A    between atoms: _267  and  _270
REMARK  106  A    between atoms: _270  and  _271
REMARK  107  A    between atoms: _276  and  _277
REMARK  108  A    between atoms: _279  and  _281
REMARK  109  A    between atoms: _281  and  _282
REMARK  110  A    between atoms: _281  and  _284
REMARK  111  A    between atoms: _284  and  _285
REMARK  112  A    between atoms: _290  and  _291
REMARK  113  A    between atoms: _293  and  _295
REMARK  114  A    between atoms: _295  and  _296
REMARK  115  A    between atoms: _295  and  _298
REMARK  116  A    between atoms: _298  and  _299
REMARK  117  A    between atoms: _299  and  _300
REMARK  118  A    between atoms: _303  and  _305
REMARK  119  A    between atoms: _305  and  _306
REMARK  120  A    between atoms: _305  and  _308
REMARK  121  A    between atoms: _308  and  _309
REMARK  122  A    between atoms: _311  and  _313
REMARK  123  A    between atoms: _313  and  _314
REMARK  124  A    between atoms: _317  and  _319
REMARK  125  A    between atoms: _319  and  _320
REMARK  126  A    between atoms: _322  and  _324
REMARK  127  A    between atoms: _324  and  _325
REMARK  128  A    between atoms: _328  and  _330
REMARK  129  A    between atoms: _330  and  _331
REMARK  130  A    between atoms: _330  and  _333
REMARK  131  A    between atoms: _333  and  _334
REMARK  132  A    between atoms: _336  and  _338
REMARK  133  A    between atoms: _338  and  _339
REMARK  134  A    between atoms: _338  and  _341
REMARK  135  A    between atoms: _344  and  _346
REMARK  136  A    between atoms: _346  and  _347
REMARK  137  A    between atoms: _346  and  _349
REMARK  138  A    between atoms: _349  and  _350
REMARK  139  A    between atoms: _353  and  _355
REMARK  140  A    between atoms: _355  and  _356
REMARK  141  A    between atoms: _355  and  _358
REMARK  142  A    between atoms: _358  and  _359
REMARK  143  A    between atoms: _364  and  _366
REMARK  144  A    between atoms: _366  and  _367
REMARK  145  A    between atoms: _366  and  _369
REMARK  146  A    between atoms: _369  and  _370
REMARK  147  A    between atoms: _370  and  _371
REMARK  148  A    between atoms: _374  and  _376
REMARK  149  A    between atoms: _376  and  _377
REMARK  150  A    between atoms: _376  and  _379
REMARK  151  A    between atoms: _379  and  _380
REMARK  152  A    between atoms: _390  and  _392
REMARK  153  A    between atoms: _392  and  _393
REMARK  154  A    between atoms: _392  and  _395
REMARK  155  A    between atoms: _395  and  _396
REMARK  156  A    between atoms: _401  and  _403
REMARK  157  A    between atoms: _403  and  _404
REMARK  158  A    between atoms: _403  and  _406
REMARK  159  A    between atoms: _409  and  _411
REMARK  160  A    between atoms: _411  and  _412
REMARK  161  A    between atoms: _411  and  _414
REMARK  162  A    between atoms: _414  and  _415
REMARK  163  A    between atoms: _419  and  _420
REMARK  164  A    between atoms: _425  and  _427
REMARK  165  A    between atoms: _427  and  _428
REMARK  166  A    between atoms: _427  and  _430
REMARK  167  A    between atoms: _430  and  _431
REMARK  168  A    between atoms: _431  and  _432
REMARK  169  A    between atoms: _437  and  _439
REMARK  170  A    between atoms: _439  and  _440
REMARK  171  A    between atoms: _439  and  _442
REMARK  172  A    between atoms: _442  and  _443
REMARK  173  A    between atoms: _443  and  _444
REMARK  174  A    between atoms: _447  and  _449
REMARK  175  A    between atoms: _449  and  _450
REMARK  176  A    between atoms: _449  and  _452
REMARK  177  A    between atoms: _452  and  _453
REMARK  178  A    between atoms: _455  and  _457
REMARK  179  A    between atoms: _457  and  _458
REMARK  180  A    between atoms: _457  and  _460
REMARK  181  A    between atoms: _460  and  _461
REMARK  182  A    between atoms: _464  and  _466
REMARK  183  A    between atoms: _466  and  _467
REMARK  184  A    between atoms: _466  and  _469
REMARK  185  A    between atoms: _469  and  _470
REMARK  186  A    between atoms: _476  and  _478
REMARK  187  A    between atoms: _478  and  _479
REMARK  188  A    between atoms: _478  and  _481
REMARK  189  A    between atoms: _481  and  _482
REMARK  190  A    between atoms: _482  and  _483
REMARK  191  A    between atoms: _483  and  _484
REMARK  192  A    between atoms: _493  and  _495
REMARK  193  A    between atoms: _495  and  _496
REMARK  194  A    between atoms: _495  and  _498
REMARK  195  A    between atoms: _498  and  _499
REMARK  196  A    between atoms: _505  and  _507
REMARK  197  A    between atoms: _507  and  _508
REMARK  198  A    between atoms: _507  and  _510
REMARK  199  A    between atoms: _510  and  _511
REMARK  200  A    between atoms: _513  and  _515
REMARK  201  A    between atoms: _515  and  _516
REMARK  202  A    between atoms: _515  and  _518
REMARK  203  A    between atoms: _518  and  _519
REMARK  204  A    between atoms: _519  and  _520
REMARK  205  A    between atoms: _523  and  _525
REMARK  206  A    between atoms: _525  and  _526
REMARK  207  A    between atoms: _525  and  _528
REMARK  208  A    between atoms: _528  and  _529
REMARK  209  A    between atoms: _531  and  _533
REMARK  210  A    between atoms: _533  and  _534
REMARK  211  A    between atoms: _533  and  _536
REMARK  212  A    between atoms: _536  and  _537
REMARK  213  A    between atoms: _542  and  _543
REMARK  214  A    between atoms: _545  and  _547
REMARK  215  A    between atoms: _547  and  _548
REMARK  216  A    between atoms: _547  and  _550
REMARK  217  A    between atoms: _550  and  _551
REMARK  218  A    between atoms: _557  and  _559
REMARK  219  A    between atoms: _559  and  _560
REMARK  220  A    between atoms: _559  and  _562
REMARK  221  A    between atoms: _562  and  _563
REMARK  222  A    between atoms: _566  and  _568
REMARK  223  A    between atoms: _568  and  _569
REMARK  224  A    between atoms: _568  and  _571
REMARK  225  A    between atoms: _574  and  _576
REMARK  226  A    between atoms: _576  and  _577
REMARK  227  A    between atoms: _576  and  _579
REMARK  228  A    between atoms: _579  and  _580
REMARK  229  A    between atoms: _585  and  _586
REMARK  230  A    between atoms: _588  and  _590
REMARK  231  A    between atoms: _590  and  _591
REMARK  232  A    between atoms: _593  and  _595
REMARK  233  A    between atoms: _595  and  _596
REMARK  234  A    between atoms: _595  and  _598
REMARK  235  A    between atoms: _601  and  _603
REMARK  236  A    between atoms: _603  and  _604
REMARK  237  A    between atoms: _603  and  _606
REMARK  238  A    between atoms: _606  and  _607
REMARK  239  A    between atoms: _611  and  _612
REMARK  240  A    between atoms: _617  and  _619
REMARK  241  A    between atoms: _619  and  _620
REMARK  242  A    between atoms: _619  and  _622
REMARK  243  A    between atoms: _622  and  _623
REMARK  244  A    between atoms: _626  and  _628
REMARK  245  A    between atoms: _628  and  _629
REMARK  246  A    between atoms: _628  and  _631
REMARK  247  A    between atoms: _631  and  _632
REMARK  248  A    between atoms: _642  and  _644
REMARK  249  A    between atoms: _644  and  _645
REMARK  250  A    between atoms: _644  and  _647
REMARK  251  A    between atoms: _647  and  _648
REMARK  252  A    between atoms: _648  and  _649
REMARK  253  A    between atoms: _652  and  _653
REMARK  254  A    between atoms: _658  and  _660
REMARK  255  A    between atoms: _660  and  _661
REMARK  256  A    between atoms: _660  and  _663
REMARK  257  A    between atoms: _663  and  _664
REMARK  258  A    between atoms: _669  and  _671
REMARK  259  A    between atoms: _671  and  _672
REMARK  260  A    between atoms: _674  and  _676
REMARK  261  A    between atoms: _676  and  _677
REMARK  262  A    between atoms: _676  and  _679
REMARK  263  A    between atoms: _679  and  _680
REMARK  264  A    between atoms: _685  and  _686
REMARK  265  A    between atoms: _688  and  _690
REMARK  266  A    between atoms: _690  and  _691
REMARK  267  A    between atoms: _690  and  _693
REMARK  268  A    between atoms: _693  and  _694
REMARK  269  A    between atoms: _694  and  _695
REMARK  270  A    between atoms: _698  and  _700
REMARK  271  A    between atoms: _700  and  _701
REMARK  272  A    between atoms: _700  and  _703
REMARK  273  A    between atoms: _703  and  _704
REMARK                            x       y       z     vdW  Elec       q    Type
REMARK                         _______ _______ _______ _____ _____    ______ ____
ROOT
ATOM      1  CA  GLU A   1      21.516  16.863   6.178  0.00  0.00    +0.134 C 
ENDROOT
BRANCH   1   2
ATOM      2  N   GLU A   1      20.202  17.200   5.669  0.00  0.00    -0.239 NA
ATOM      3  H   GLU A   1      19.637  16.462   5.203  0.00  0.00    +0.142 HD
ENDBRANCH   1   2
BRANCH   1   4
ATOM      4  C   GLU A   1      22.651  17.739   5.615  0.00  0.00    +0.224 C 
ATOM      5  O   GLU A   1      23.574  18.090   6.340  0.00  0.00    -0.287 OA
ENDBRANCH   1   4
BRANCH   1   6
ATOM      6  CB  GLU A   1      21.816  15.393   5.873  0.00  0.00    +0.037 C 
BRANCH   6   7
ATOM      7  CG  GLU A   1      20.975  14.385   6.650  0.00  0.00    +0.116 C 
BRANCH   7   8
ATOM      8  CD  GLU A   1      21.395  14.281   8.095  0.00  0.00    +0.365 C 
ATOM      9  OE2 GLU A   1      20.702  13.580   8.878  0.00  0.00    -0.246 OA
ATOM     10  OE1 GLU A   1      22.429  14.892   8.442  0.00  0.00    -0.246 OA
ENDBRANCH   7   8
ENDBRANCH   6   7
ENDBRANCH   1   6
TORSDOF 5
REMARK  Name = ../refined-set-2016/1q84/1q84_pocket.pdb
REMARK  273 active torsions:
REMARK  status: ('A' for Active; 'I' for Inactive)
REMARK    1  A    between atoms: _1  and  _3
REMARK    2  A    between atoms: _3  and  _4
REMARK    3  A    between atoms: _3  and  _6
REMARK    4  A    between atoms: _6  and  _7
REMARK    5  A    between atoms: _7  and  _8
REMARK    6  A    between atoms: _13  and  _15
REMARK    7  A    between atoms: _15  and  _16
REMARK    8  A    between atoms: _15  and  _18
REMARK    9  A    between atoms: _18  and  _19
REMARK   10  A    between atoms: _24  and  _25
REMARK   11  A    between atoms: _27  and  _29
REMARK   12  A    between atoms: _29  and  _30
REMARK   13  A    between atoms: _29  and  _32
REMARK   14  A    between atoms: _35  and  _37
REMARK   15  A    between atoms: _37  and  _38
REMARK   16  A    between atoms: _37  and  _40
REMARK   17  A    between atoms: _40  and  _41
REMARK   18  A    between atoms: _44  and  _46
REMARK   19  A    between atoms: _46  and  _47
REMARK   20  A    between atoms: _46  and  _49
REMARK   21  A    between atoms: _49  and  _50
REMARK   22  A    between atoms: _53  and  _55
REMARK   23  A    between atoms: _55  and  _56
REMARK   24  A    between atoms: _55  and  _58
REMARK   25  A    between atoms: _58  and  _59
REMARK   26  A    between atoms: _62  and  _64
REMARK   27  A    between atoms: _64  and  _65
REMARK   28  A    between atoms: _64  and  _67
REMARK   29  A    between atoms: _67  and  _68
REMARK   30  A    between atoms: _73  and  _74
REMARK   31  A    between atoms: _76  and  _78
REMARK   32  A    between atoms: _78  and  _79
REMARK   33  A    between atoms: _78  and  _81
REMARK   34  A    between atoms: _81  and  _82
REMARK   35  A    between atoms: _88  and  _90
REMARK   36  A    between atoms: _90  and  _91
REMARK   37  A    between atoms: _90  and  _93
REMARK   38  A    between atoms: _93  and  _94
REMARK   39  A    between atoms: _94  and  _95
REMARK   40  A    between atoms: _98  and  _100
REMARK   41  A    between atoms: _100  and  _101
REMARK   42  A    between atoms: _103  and  _105
REMARK   43  A    between atoms: _105  and  _106
REMARK   44  A    between atoms: _105  and  _108
REMARK   45  A    between atoms: _108  and  _109
REMARK   46  A    between atoms: _112  and  _114
REMARK   47  A    between atoms: _114  and  _115
REMARK   48  A    between atoms: _114  and  _117
REMARK   49  A    between atoms: _117  and  _118
REMARK   50  A    between atoms: _118  and  _119
REMARK   51  A    between atoms: _122  and  _124
REMARK   52  A    between atoms: _124  and  _125
REMARK   53  A    between atoms: _124  and  _127
REMARK   54  A    between atoms: _127  and  _128
REMARK   55  A    between atoms: _128  and  _129
REMARK   56  A    between atoms: _131  and  _133
REMARK   57  A    between atoms: _133  and  _134
REMARK   58  A    between atoms: _133  and  _136
REMARK   59  A    between atoms: _136  and  _137
REMARK   60  A    between atoms: _147  and  _149
REMARK   61  A    between atoms: _149  and  _150
REMARK   62  A    between atoms: _149  and  _152
REMARK   63  A    between atoms: _152  and  _153
REMARK   64  A    between atoms: _158  and  _160
REMARK   65  A    between atoms: _160  and  _161
REMARK   66  A    between atoms: _160  and  _163
REMARK   67  A    between atoms: _163  and  _164
REMARK   68  A    between atoms: _174  and  _176
REMARK   69  A    between atoms: _176  and  _177
REMARK   70  A    between atoms: _176  and  _179
REMARK   71  A    between atoms: _179  and  _180
REMARK   72  A    between atoms: _185  and  _186
REMARK   73  A    between atoms: _188  and  _190
REMARK   74  A    between atoms: _190  and  _191
REMARK   75  A    between atoms: _193  and  _195
REMARK   76  A    between atoms: _195  and  _196
REMARK   77  A    between atoms: _198  and  _200
REMARK   78  A    between atoms: _200  and  _201
REMARK   79  A    between atoms: _203  and  _205
REMARK   80  A    between atoms: _205  and  _206
REMARK   81  A    between atoms: _205  and  _208
REMARK   82  A    between atoms: _208  and  _209
REMARK   83  A    between atoms: _215  and  _217
REMARK   84  A    between atoms: _217  and  _218
REMARK   85  A    between atoms: _217  and  _220
REMARK   86  A    between atoms: _220  and  _221
REMARK   87  A    between atoms: _226  and  _227
REMARK   88  A    between atoms: _229  and  _231
REMARK   89  A    between atoms: _231  and  _232
REMARK   90  A    between atoms: _231  and  _234
REMARK   91  A    between atoms: _234  and  _235
REMARK   92  A    between atoms: _237  and  _239
REMARK   93  A    between atoms: _239  and  _240
REMARK   94  A    between atoms: _242  and  _244
REMARK   95  A    between atoms: _244  and  _245
REMARK   96  A    between atoms: _248  and  _250
REMARK   97  A    between atoms: _250  and  _251
REMARK   98  A    between atoms: _250  and  _253
REMARK   99  A    between atoms: _253  and  _254
REMARK  100  A    between atoms: _257  and  _259
REMARK  101  A    between atoms: _259  and  _260
REMARK  102  A    between atoms: _259  and  _262
REMARK  103  A    between atoms: _265  and  _267
REMARK  104  A    between atoms: _267  and  _268
REMARK  105  A    between atoms: _267  and  _270
REMARK  106  A    between atoms: _270  and  _271
REMARK  107  A    between atoms: _276  and  _277
REMARK  108  A    between atoms: _279  and  _281
REMARK  109  A    between atoms: _281  and  _282
REMARK  110  A    between atoms: _281  and  _284
REMARK  111  A    between atoms: _284  and  _285
REMARK  112  A    between atoms: _290  and  _291
REMARK  113  A    between atoms: _293  and  _295
REMARK  114  A    between atoms: _295  and  _296
REMARK  115  A    between atoms: _295  and  _298
REMARK  116  A    between atoms: _298  and  _299
REMARK  117  A    between atoms: _299  and  _300
REMARK  118  A    between atoms: _303  and  _305
REMARK  119  A    between atoms: _305  and  _306
REMARK  120  A    between atoms: _305  and  _308
REMARK  121  A    between atoms: _308  and  _309
REMARK  122  A    between atoms: _311  and  _313
REMARK  123  A    between atoms: _313  and  _314
REMARK  124  A    between atoms: _317  and  _319
REMARK  125  A    between atoms: _319  and  _320
REMARK  126  A    between atoms: _322  and  _324
REMARK  127  A    between atoms: _324  and  _325
REMARK  128  A    between atoms: _328  and  _330
REMARK  129  A    between atoms: _330  and  _331
REMARK  130  A    between atoms: _330  and  _333
REMARK  131  A    between atoms: _333  and  _334
REMARK  132  A    between atoms: _336  and  _338
REMARK  133  A    between atoms: _338  and  _339
REMARK  134  A    between atoms: _338  and  _341
REMARK  135  A    between atoms: _344  and  _346
REMARK  136  A    between atoms: _346  and  _347
REMARK  137  A    between atoms: _346  and  _349
REMARK  138  A    between atoms: _349  and  _350
REMARK  139  A    between atoms: _353  and  _355
REMARK  140  A    between atoms: _355  and  _356
REMARK  141  A    between atoms: _355  and  _358
REMARK  142  A    between atoms: _358  and  _359
REMARK  143  A    between atoms: _364  and  _366
REMARK  144  A    between atoms: _366  and  _367
REMARK  145  A    between atoms: _366  and  _369
REMARK  146  A    between atoms: _369  and  _370
REMARK  147  A    between atoms: _370  and  _371
REMARK  148  A    between atoms: _374  and  _376
REMARK  149  A    between atoms: _376  and  _377
REMARK  150  A    between atoms: _376  and  _379
REMARK  151  A    between atoms: _379  and  _380
REMARK  152  A    between atoms: _390  and  _392
REMARK  153  A    between atoms: _392  and  _393
REMARK  154  A    between atoms: _392  and  _395
REMARK  155  A    between atoms: _395  and  _396
REMARK  156  A    between atoms: _401  and  _403
REMARK  157  A    between atoms: _403  and  _404
REMARK  158  A    between atoms: _403  and  _406
REMARK  159  A    between atoms: _409  and  _411
REMARK  160  A    between atoms: _411  and  _412
REMARK  161  A    between atoms: _411  and  _414
REMARK  162  A    between atoms: _414  and  _415
REMARK  163  A    between atoms: _419  and  _420
REMARK  164  A    between atoms: _425  and  _427
REMARK  165  A    between atoms: _427  and  _428
REMARK  166  A    between atoms: _427  and  _430
REMARK  167  A    between atoms: _430  and  _431
REMARK  168  A    between atoms: _431  and  _432
REMARK  169  A    between atoms: _437  and  _439
REMARK  170  A    between atoms: _439  and  _440
REMARK  171  A    between atoms: _439  and  _442
REMARK  172  A    between atoms: _442  and  _443
REMARK  173  A    between atoms: _443  and  _444
REMARK  174  A    between atoms: _447  and  _449
REMARK  175  A    between atoms: _449  and  _450
REMARK  176  A    between atoms: _449  and  _452
REMARK  177  A    between atoms: _452  and  _453
REMARK  178  A    between atoms: _455  and  _457
REMARK  179  A    between atoms: _457  and  _458
REMARK  180  A    between atoms: _457  and  _460
REMARK  181  A    between atoms: _460  and  _461
REMARK  182  A    between atoms: _464  and  _466
REMARK  183  A    between atoms: _466  and  _467
REMARK  184  A    between atoms: _466  and  _469
REMARK  185  A    between atoms: _469  and  _470
REMARK  186  A    between atoms: _476  and  _478
REMARK  187  A    between atoms: _478  and  _479
REMARK  188  A    between atoms: _478  and  _481
REMARK  189  A    between atoms: _481  and  _482
REMARK  190  A    between atoms: _482  and  _483
REMARK  191  A    between atoms: _483  and  _484
REMARK  192  A    between atoms: _493  and  _495
REMARK  193  A    between atoms: _495  and  _496
REMARK  194  A    between atoms: _495  and  _498
REMARK  195  A    between atoms: _498  and  _499
REMARK  196  A    between atoms: _505  and  _507
REMARK  197  A    between atoms: _507  and  _508
REMARK  198  A    between atoms: _507  and  _510
REMARK  199  A    between atoms: _510  and  _511
REMARK  200  A    between atoms: _513  and  _515
REMARK  201  A    between atoms: _515  and  _516
REMARK  202  A    between atoms: _515  and  _518
REMARK  203  A    between atoms: _518  and  _519
REMARK  204  A    between atoms: _519  and  _520
REMARK  205  A    between atoms: _523  and  _525
REMARK  206  A    between atoms: _525  and  _526
REMARK  207  A    between atoms: _525  and  _528
REMARK  208  A    between atoms: _528  and  _529
REMARK  209  A    between atoms: _531  and  _533
REMARK  210  A    between atoms: _533  and  _534
REMARK  211  A    between atoms: _533  and  _536
REMARK  212  A    between atoms: _536  and  _537
REMARK  213  A    between atoms: _542  and  _543
REMARK  214  A    between atoms: _545  and  _547
REMARK  215  A    between atoms: _547  and  _548
REMARK  216  A    between atoms: _547  and  _550
REMARK  217  A    between atoms: _550  and  _551
REMARK  218  A    between atoms: _557  and  _559
REMARK  219  A    between atoms: _559  and  _560
REMARK  220  A    between atoms: _559  and  _562
REMARK  221  A    between atoms: _562  and  _563
REMARK  222  A    between atoms: _566  and  _568
REMARK  223  A    between atoms: _568  and  _569
REMARK  224  A    between atoms: _568  and  _571
REMARK  225  A    between atoms: _574  and  _576
REMARK  226  A    between atoms: _576  and  _577
REMARK  227  A    between atoms: _576  and  _579
REMARK  228  A    between atoms: _579  and  _580
REMARK  229  A    between atoms: _585  and  _586
REMARK  230  A    between atoms: _588  and  _590
REMARK  231  A    between atoms: _590  and  _591
REMARK  232  A    between atoms: _593  and  _595
REMARK  233  A    between atoms: _595  and  _596
REMARK  234  A    between atoms: _595  and  _598
REMARK  235  A    between atoms: _601  and  _603
REMARK  236  A    between atoms: _603  and  _604
REMARK  237  A    between atoms: _603  and  _606
REMARK  238  A    between atoms: _606  and  _607
REMARK  239  A    between atoms: _611  and  _612
REMARK  240  A    between atoms: _617  and  _619
REMARK  241  A    between atoms: _619  and  _620
REMARK  242  A    between atoms: _619  and  _622
REMARK  243  A    between atoms: _622  and  _623
REMARK  244  A    between atoms: _626  and  _628
REMARK  245  A    between atoms: _628  and  _629
REMARK  246  A    between atoms: _628  and  _631
REMARK  247  A    between atoms: _631  and  _632
REMARK  248  A    between atoms: _642  and  _644
REMARK  249  A    between atoms: _644  and  _645
REMARK  250  A    between atoms: _644  and  _647
REMARK  251  A    between atoms: _647  and  _648
REMARK  252  A    between atoms: _648  and  _649
REMARK  253  A    between atoms: _652  and  _653
REMARK  254  A    between atoms: _658  and  _660
REMARK  255  A    between atoms: _660  and  _661
REMARK  256  A    between atoms: _660  and  _663
REMARK  257  A    between atoms: _663  and  _664
REMARK  258  A    between atoms: _669  and  _671
REMARK  259  A    between atoms: _671  and  _672
REMARK  260  A    between atoms: _674  and  _676
REMARK  261  A    between atoms: _676  and  _677
REMARK  262  A    between atoms: _676  and  _679
REMARK  263  A    between atoms: _679  and  _680
REMARK  264  A    between atoms: _685  and  _686
REMARK  265  A    between atoms: _688  and  _690
REMARK  266  A    between atoms: _690  and  _691
REMARK  267  A    between atoms: _690  and  _693
REMARK  268  A    between atoms: _693  and  _694
REMARK  269  A    between atoms: _694  and  _695
REMARK  270  A    between atoms: _698  and  _700
REMARK  271  A    between atoms: _700  and  _701
REMARK  272  A    between atoms: _700  and  _703
REMARK  273  A    between atoms: _703  and  _704
REMARK                            x       y       z     vdW  Elec       q    Type
REMARK                         _______ _______ _______ _____ _____    ______ ____
ROOT
ATOM      1  CA  LEU A   4      27.397  24.549   2.059  0.00  0.00    +0.149 C 
ENDROOT
BRANCH   1   2
ATOM      2  C   LEU A   4      27.992  25.933   2.373  0.00  0.00    +0.241 C 
ATOM      3  N   VAL A   5      27.675  26.526   3.525  0.00  0.00    -0.297 N 
ATOM      4  H   VAL A   5      27.053  26.035   4.198  0.00  0.00    +0.150 HD
ATOM      5  O   LEU A   4      28.729  26.452   1.570  0.00  0.00    -0.273 OA
BRANCH   3   6
ATOM      6  CA  VAL A   5      28.190  27.861   3.859  0.00  0.00    +0.149 C 
BRANCH   6   7
ATOM      7  C   VAL A   5      29.605  27.806   4.401  0.00  0.00    +0.241 C 
ATOM      8  N   TYR A   6      30.084  26.615   4.719  0.00  0.00    -0.297 N 
ATOM      9  H   TYR A   6      29.463  25.783   4.659  0.00  0.00    +0.150 HD
ATOM     10  O   VAL A   5      30.240  28.813   4.536  0.00  0.00    -0.273 OA
BRANCH   8  11
ATOM     11  CA  TYR A   6      31.467  26.447   5.153  0.00  0.00    +0.153 C 
BRANCH  11  12
ATOM     12  C   TYR A   6      32.437  26.184   3.997  0.00  0.00    +0.241 C 
ATOM     13  O   TYR A   6      33.488  25.619   4.226  0.00  0.00    -0.273 OA
ATOM     14  N   GLY A   7      32.120  26.586   2.773  0.00  0.00    -0.295 N 
ATOM     15  H   GLY A   7      31.179  26.987   2.586  0.00  0.00    +0.150 HD
BRANCH  14  16
ATOM     16  CA  GLY A   7      33.090  26.466   1.689  0.00  0.00    +0.176 C 
BRANCH  16  17
ATOM     17  C   GLY A   7      32.620  26.316   0.237  0.00  0.00    +0.243 C 
ATOM     18  N   VAL A   8      31.314  26.335  -0.044  0.00  0.00    -0.298 N 
ATOM     19  H   VAL A   8      30.617  26.352   0.728  0.00  0.00    +0.150 HD
ATOM     20  O   GLY A   7      33.470  26.143  -0.637  0.00  0.00    -0.273 OA
BRANCH  18  21
ATOM     21  CA  VAL A   8      30.862  26.332  -1.441  0.00  0.00    +0.137 C 
BRANCH  21  22
ATOM     22  CB  VAL A   8      29.594  25.437  -1.691  0.00  0.00    +0.026 C 
ATOM     23  CG2 VAL A   8      29.864  24.016  -1.333  0.00  0.00    +0.002 C 
ATOM     24  CG1 VAL A   8      29.167  25.501  -3.166  0.00  0.00    +0.002 C 
ENDBRANCH  21  22
BRANCH  21  25
ATOM     25  C   VAL A   8      30.581  27.781  -1.862  0.00  0.00    +0.227 C 
ATOM     26  O   VAL A   8      29.733  28.437  -1.271  0.00  0.00    -0.286 OA
ENDBRANCH  21  25
ENDBRANCH  18  21
ENDBRANCH  16  17
ENDBRANCH  14  16
ENDBRANCH  11  12
BRANCH  11  27
ATOM     27  CB  TYR A   6      31.581  25.331   6.208  0.00  0.00    +0.055 C 
BRANCH  27  28
ATOM     28  CG  TYR A   6      31.070  25.723   7.582  0.00  0.00    -0.020 A 
ATOM     29  CD2 TYR A   6      31.929  26.249   8.540  0.00  0.00    -0.001 A 
ATOM     30  CE2 TYR A   6      31.455  26.645   9.794  0.00  0.00    +0.036 A 
ATOM     31  CZ  TYR A   6      30.122  26.492  10.106  0.00  0.00    +0.134 A 
ATOM     32  CE1 TYR A   6      29.257  25.944   9.184  0.00  0.00    +0.036 A 
ATOM     33  CD1 TYR A   6      29.723  25.584   7.924  0.00  0.00    -0.001 A 
BRANCH  31  34
ATOM     34  OH  TYR A   6      29.666  26.848  11.359  0.00  0.00    -0.506 OA
ATOM     35  HH  TYR A   6      30.138  26.313  12.045  0.00  0.00    +0.292 HD
ENDBRANCH  31  34
ENDBRANCH  27  28
ENDBRANCH  11  27
ENDBRANCH   8  11
ENDBRANCH   6   7
BRANCH   6  36
ATOM     36  CB  VAL A   5      27.300  28.649   4.842  0.00  0.00    +0.027 C 
ATOM     37  CG2 VAL A   5      27.347  28.071   6.223  0.00  0.00    +0.002 C 
ATOM     38  CG1 VAL A   5      25.854  28.681   4.369  0.00  0.00    +0.002 C 
ENDBRANCH   6  36
ENDBRANCH   3   6
ENDBRANCH   1   2
BRANCH   1  41
ATOM     39  C   PHE A   3      28.210  23.366   3.997  0.00  0.00    +0.241 C 
ATOM     40  O   PHE A   3      29.362  23.780   3.830  0.00  0.00    -0.273 OA
ATOM     41  N   LEU A   4      27.185  23.732   3.231  0.00  0.00    -0.297 N 
ATOM     42  H   LEU A   4      26.222  23.427   3.479  0.00  0.00    +0.150 HD
BRANCH  39  43
ATOM     43  CA  PHE A   3      27.874  22.432   5.158  0.00  0.00    +0.153 C 
BRANCH  43  46
ATOM     44  C   TYR A   2      26.107  23.809   6.071  0.00  0.00    +0.241 C 
ATOM     45  O   TYR A   2      26.814  24.808   6.100  0.00  0.00    -0.273 OA
ATOM     46  N   PHE A   3      26.523  22.633   5.646  0.00  0.00    -0.297 N 
ATOM     47  H   PHE A   3      25.865  21.828   5.661  0.00  0.00    +0.150 HD
BRANCH  44  48
ATOM     48  CA  TYR A   2      24.666  23.865   6.532  0.00  0.00    +0.153 C 
BRANCH  48  50
ATOM     49  C   SER A   1      23.434  23.161   4.555  0.00  0.00    +0.241 C 
ATOM     50  N   TYR A   2      23.798  22.927   5.804  0.00  0.00    -0.297 N 
ATOM     51  H   TYR A   2      23.465  22.065   6.280  0.00  0.00    +0.150 HD
ATOM     52  O   SER A   1      23.955  24.018   3.891  0.00  0.00    -0.274 OA
BRANCH  49  53
ATOM     53  CA  SER A   1      22.334  22.314   3.939  0.00  0.00    +0.174 C 
BRANCH  53  54
ATOM     54  N   SER A   1      22.522  20.898   4.149  0.00  0.00    -0.236 NA
ATOM     55  H   SER A   1      21.769  20.341   4.600  0.00  0.00    +0.142 HD
ENDBRANCH  53  54
BRANCH  53  56
ATOM     56  CB  SER A   1      20.952  22.760   4.442  0.00  0.00    +0.163 C 
BRANCH  56  57
ATOM     57  OG  SER A   1      20.852  22.652   5.856  0.00  0.00    -0.380 OA
ATOM     58  H   SER A   1      19.952  22.946   6.145  0.00  0.00    +0.211 HD
ENDBRANCH  56  57
ENDBRANCH  53  56
ENDBRANCH  49  53
ENDBRANCH  48  50
BRANCH  48  59
ATOM     59  CB  TYR A   2      24.557  23.673   8.068  0.00  0.00    +0.055 C 
BRANCH  59  60
ATOM     60  CG  TYR A   2      25.596  22.815   8.764  0.00  0.00    -0.020 A 
ATOM     61  CD2 TYR A   2      25.259  21.588   9.275  0.00  0.00    -0.001 A 
ATOM     62  CE2 TYR A   2      26.185  20.793   9.940  0.00  0.00    +0.036 A 
ATOM     63  CZ  TYR A   2      27.506  21.219  10.110  0.00  0.00    +0.134 A 
ATOM     64  CE1 TYR A   2      27.874  22.451   9.598  0.00  0.00    +0.036 A 
ATOM     65  CD1 TYR A   2      26.904  23.256   8.950  0.00  0.00    -0.001 A 
BRANCH  63  66
ATOM     66  OH  TYR A   2      28.414  20.377  10.795  0.00  0.00    -0.506 OA
ATOM     67  HH  TYR A   2      29.302  20.813  10.834  0.00  0.00    +0.292 HD
ENDBRANCH  63  66
ENDBRANCH  59  60
ENDBRANCH  48  59
ENDBRANCH  44  48
ENDBRANCH  43  46
BRANCH  43  68
ATOM     68  CB  PHE A   3      28.053  20.973   4.734  0.00  0.00    +0.055 C 
BRANCH  68  69
ATOM     69  CG  PHE A   3      28.067  20.019   5.901  0.00  0.00    -0.020 A 
ATOM     70  CD2 PHE A   3      29.222  19.834   6.640  0.00  0.00    -0.004 A 
ATOM     71  CE2 PHE A   3      29.230  18.981   7.750  0.00  0.00    -0.000 A 
ATOM     72  CZ  PHE A   3      28.073  18.322   8.120  0.00  0.00    -0.000 A 
ATOM     73  CE1 PHE A   3      26.893  18.509   7.385  0.00  0.00    -0.000 A 
ATOM     74  CD1 PHE A   3      26.898  19.348   6.284  0.00  0.00    -0.004 A 
ENDBRANCH  68  69
ENDBRANCH  43  68
ENDBRANCH  39  43
ENDBRANCH   1  41
BRANCH   1  75
ATOM     75  CB  LEU A   4      26.087  24.689   1.287  0.00  0.00    +0.029 C 
BRANCH  75  76
ATOM     76  CG  LEU A   4      25.342  23.404   0.923  0.00  0.00    +0.002 C 
ATOM     77  CD2 LEU A   4      26.281  22.461   0.175  0.00  0.00    +0.000 C 
ATOM     78  CD1 LEU A   4      24.093  23.735   0.092  0.00  0.00    +0.000 C 
ENDBRANCH  75  76
ENDBRANCH   1  75
TORSDOF 30
REMARK  Name = ../refined-set-2016/1q84/1q84_pocket.pdb
REMARK  273 active torsions:
REMARK  status: ('A' for Active; 'I' for Inactive)
REMARK    1  A    between atoms: _1  and  _3
REMARK    2  A    between atoms: _3  and  _4
REMARK    3  A    between atoms: _3  and  _6
REMARK    4  A    between atoms: _6  and  _7
REMARK    5  A    between atoms: _7  and  _8
REMARK    6  A    between atoms: _13  and  _15
REMARK    7  A    between atoms: _15  and  _16
REMARK    8  A    between atoms: _15  and  _18
REMARK    9  A    between atoms: _18  and  _19
REMARK   10  A    between atoms: _24  and  _25
REMARK   11  A    between atoms: _27  and  _29
REMARK   12  A    between atoms: _29  and  _30
REMARK   13  A    between atoms: _29  and  _32
REMARK   14  A    between atoms: _35  and  _37
REMARK   15  A    between atoms: _37  and  _38
REMARK   16  A    between atoms: _37  and  _40
REMARK   17  A    between atoms: _40  and  _41
REMARK   18  A    between atoms: _44  and  _46
REMARK   19  A    between atoms: _46  and  _47
REMARK   20  A    between atoms: _46  and  _49
REMARK   21  A    between atoms: _49  and  _50
REMARK   22  A    between atoms: _53  and  _55
REMARK   23  A    between atoms: _55  and  _56
REMARK   24  A    between atoms: _55  and  _58
REMARK   25  A    between atoms: _58  and  _59
REMARK   26  A    between atoms: _62  and  _64
REMARK   27  A    between atoms: _64  and  _65
REMARK   28  A    between atoms: _64  and  _67
REMARK   29  A    between atoms: _67  and  _68
REMARK   30  A    between atoms: _73  and  _74
REMARK   31  A    between atoms: _76  and  _78
REMARK   32  A    between atoms: _78  and  _79
REMARK   33  A    between atoms: _78  and  _81
REMARK   34  A    between atoms: _81  and  _82
REMARK   35  A    between atoms: _88  and  _90
REMARK   36  A    between atoms: _90  and  _91
REMARK   37  A    between atoms: _90  and  _93
REMARK   38  A    between atoms: _93  and  _94
REMARK   39  A    between atoms: _94  and  _95
REMARK   40  A    between atoms: _98  and  _100
REMARK   41  A    between atoms: _100  and  _101
REMARK   42  A    between atoms: _103  and  _105
REMARK   43  A    between atoms: _105  and  _106
REMARK   44  A    between atoms: _105  and  _108
REMARK   45  A    between atoms: _108  and  _109
REMARK   46  A    between atoms: _112  and  _114
REMARK   47  A    between atoms: _114  and  _115
REMARK   48  A    between atoms: _114  and  _117
REMARK   49  A    between atoms: _117  and  _118
REMARK   50  A    between atoms: _118  and  _119
REMARK   51  A    between atoms: _122  and  _124
REMARK   52  A    between atoms: _124  and  _125
REMARK   53  A    between atoms: _124  and  _127
REMARK   54  A    between atoms: _127  and  _128
REMARK   55  A    between atoms: _128  and  _129
REMARK   56  A    between atoms: _131  and  _133
REMARK   57  A    between atoms: _133  and  _134
REMARK   58  A    between atoms: _133  and  _136
REMARK   59  A    between atoms: _136  and  _137
REMARK   60  A    between atoms: _147  and  _149
REMARK   61  A    between atoms: _149  and  _150
REMARK   62  A    between atoms: _149  and  _152
REMARK   63  A    between atoms: _152  and  _153
REMARK   64  A    between atoms: _158  and  _160
REMARK   65  A    between atoms: _160  and  _161
REMARK   66  A    between atoms: _160  and  _163
REMARK   67  A    between atoms: _163  and  _164
REMARK   68  A    between atoms: _174  and  _176
REMARK   69  A    between atoms: _176  and  _177
REMARK   70  A    between atoms: _176  and  _179
REMARK   71  A    between atoms: _179  and  _180
REMARK   72  A    between atoms: _185  and  _186
REMARK   73  A    between atoms: _188  and  _190
REMARK   74  A    between atoms: _190  and  _191
REMARK   75  A    between atoms: _193  and  _195
REMARK   76  A    between atoms: _195  and  _196
REMARK   77  A    between atoms: _198  and  _200
REMARK   78  A    between atoms: _200  and  _201
REMARK   79  A    between atoms: _203  and  _205
REMARK   80  A    between atoms: _205  and  _206
REMARK   81  A    between atoms: _205  and  _208
REMARK   82  A    between atoms: _208  and  _209
REMARK   83  A    between atoms: _215  and  _217
REMARK   84  A    between atoms: _217  and  _218
REMARK   85  A    between atoms: _217  and  _220
REMARK   86  A    between atoms: _220  and  _221
REMARK   87  A    between atoms: _226  and  _227
REMARK   88  A    between atoms: _229  and  _231
REMARK   89  A    between atoms: _231  and  _232
REMARK   90  A    between atoms: _231  and  _234
REMARK   91  A    between atoms: _234  and  _235
REMARK   92  A    between atoms: _237  and  _239
REMARK   93  A    between atoms: _239  and  _240
REMARK   94  A    between atoms: _242  and  _244
REMARK   95  A    between atoms: _244  and  _245
REMARK   96  A    between atoms: _248  and  _250
REMARK   97  A    between atoms: _250  and  _251
REMARK   98  A    between atoms: _250  and  _253
REMARK   99  A    between atoms: _253  and  _254
REMARK  100  A    between atoms: _257  and  _259
REMARK  101  A    between atoms: _259  and  _260
REMARK  102  A    between atoms: _259  and  _262
REMARK  103  A    between atoms: _265  and  _267
REMARK  104  A    between atoms: _267  and  _268
REMARK  105  A    between atoms: _267  and  _270
REMARK  106  A    between atoms: _270  and  _271
REMARK  107  A    between atoms: _276  and  _277
REMARK  108  A    between atoms: _279  and  _281
REMARK  109  A    between atoms: _281  and  _282
REMARK  110  A    between atoms: _281  and  _284
REMARK  111  A    between atoms: _284  and  _285
REMARK  112  A    between atoms: _290  and  _291
REMARK  113  A    between atoms: _293  and  _295
REMARK  114  A    between atoms: _295  and  _296
REMARK  115  A    between atoms: _295  and  _298
REMARK  116  A    between atoms: _298  and  _299
REMARK  117  A    between atoms: _299  and  _300
REMARK  118  A    between atoms: _303  and  _305
REMARK  119  A    between atoms: _305  and  _306
REMARK  120  A    between atoms: _305  and  _308
REMARK  121  A    between atoms: _308  and  _309
REMARK  122  A    between atoms: _311  and  _313
REMARK  123  A    between atoms: _313  and  _314
REMARK  124  A    between atoms: _317  and  _319
REMARK  125  A    between atoms: _319  and  _320
REMARK  126  A    between atoms: _322  and  _324
REMARK  127  A    between atoms: _324  and  _325
REMARK  128  A    between atoms: _328  and  _330
REMARK  129  A    between atoms: _330  and  _331
REMARK  130  A    between atoms: _330  and  _333
REMARK  131  A    between atoms: _333  and  _334
REMARK  132  A    between atoms: _336  and  _338
REMARK  133  A    between atoms: _338  and  _339
REMARK  134  A    between atoms: _338  and  _341
REMARK  135  A    between atoms: _344  and  _346
REMARK  136  A    between atoms: _346  and  _347
REMARK  137  A    between atoms: _346  and  _349
REMARK  138  A    between atoms: _349  and  _350
REMARK  139  A    between atoms: _353  and  _355
REMARK  140  A    between atoms: _355  and  _356
REMARK  141  A    between atoms: _355  and  _358
REMARK  142  A    between atoms: _358  and  _359
REMARK  143  A    between atoms: _364  and  _366
REMARK  144  A    between atoms: _366  and  _367
REMARK  145  A    between atoms: _366  and  _369
REMARK  146  A    between atoms: _369  and  _370
REMARK  147  A    between atoms: _370  and  _371
REMARK  148  A    between atoms: _374  and  _376
REMARK  149  A    between atoms: _376  and  _377
REMARK  150  A    between atoms: _376  and  _379
REMARK  151  A    between atoms: _379  and  _380
REMARK  152  A    between atoms: _390  and  _392
REMARK  153  A    between atoms: _392  and  _393
REMARK  154  A    between atoms: _392  and  _395
REMARK  155  A    between atoms: _395  and  _396
REMARK  156  A    between atoms: _401  and  _403
REMARK  157  A    between atoms: _403  and  _404
REMARK  158  A    between atoms: _403  and  _406
REMARK  159  A    between atoms: _409  and  _411
REMARK  160  A    between atoms: _411  and  _412
REMARK  161  A    between atoms: _411  and  _414
REMARK  162  A    between atoms: _414  and  _415
REMARK  163  A    between atoms: _419  and  _420
REMARK  164  A    between atoms: _425  and  _427
REMARK  165  A    between atoms: _427  and  _428
REMARK  166  A    between atoms: _427  and  _430
REMARK  167  A    between atoms: _430  and  _431
REMARK  168  A    between atoms: _431  and  _432
REMARK  169  A    between atoms: _437  and  _439
REMARK  170  A    between atoms: _439  and  _440
REMARK  171  A    between atoms: _439  and  _442
REMARK  172  A    between atoms: _442  and  _443
REMARK  173  A    between atoms: _443  and  _444
REMARK  174  A    between atoms: _447  and  _449
REMARK  175  A    between atoms: _449  and  _450
REMARK  176  A    between atoms: _449  and  _452
REMARK  177  A    between atoms: _452  and  _453
REMARK  178  A    between atoms: _455  and  _457
REMARK  179  A    between atoms: _457  and  _458
REMARK  180  A    between atoms: _457  and  _460
REMARK  181  A    between atoms: _460  and  _461
REMARK  182  A    between atoms: _464  and  _466
REMARK  183  A    between atoms: _466  and  _467
REMARK  184  A    between atoms: _466  and  _469
REMARK  185  A    between atoms: _469  and  _470
REMARK  186  A    between atoms: _476  and  _478
REMARK  187  A    between atoms: _478  and  _479
REMARK  188  A    between atoms: _478  and  _481
REMARK  189  A    between atoms: _481  and  _482
REMARK  190  A    between atoms: _482  and  _483
REMARK  191  A    between atoms: _483  and  _484
REMARK  192  A    between atoms: _493  and  _495
REMARK  193  A    between atoms: _495  and  _496
REMARK  194  A    between atoms: _495  and  _498
REMARK  195  A    between atoms: _498  and  _499
REMARK  196  A    between atoms: _505  and  _507
REMARK  197  A    between atoms: _507  and  _508
REMARK  198  A    between atoms: _507  and  _510
REMARK  199  A    between atoms: _510  and  _511
REMARK  200  A    between atoms: _513  and  _515
REMARK  201  A    between atoms: _515  and  _516
REMARK  202  A    between atoms: _515  and  _518
REMARK  203  A    between atoms: _518  and  _519
REMARK  204  A    between atoms: _519  and  _520
REMARK  205  A    between atoms: _523  and  _525
REMARK  206  A    between atoms: _525  and  _526
REMARK  207  A    between atoms: _525  and  _528
REMARK  208  A    between atoms: _528  and  _529
REMARK  209  A    between atoms: _531  and  _533
REMARK  210  A    between atoms: _533  and  _534
REMARK  211  A    between atoms: _533  and  _536
REMARK  212  A    between atoms: _536  and  _537
REMARK  213  A    between atoms: _542  and  _543
REMARK  214  A    between atoms: _545  and  _547
REMARK  215  A    between atoms: _547  and  _548
REMARK  216  A    between atoms: _547  and  _550
REMARK  217  A    between atoms: _550  and  _551
REMARK  218  A    between atoms: _557  and  _559
REMARK  219  A    between atoms: _559  and  _560
REMARK  220  A    between atoms: _559  and  _562
REMARK  221  A    between atoms: _562  and  _563
REMARK  222  A    between atoms: _566  and  _568
REMARK  223  A    between atoms: _568  and  _569
REMARK  224  A    between atoms: _568  and  _571
REMARK  225  A    between atoms: _574  and  _576
REMARK  226  A    between atoms: _576  and  _577
REMARK  227  A    between atoms: _576  and  _579
REMARK  228  A    between atoms: _579  and  _580
REMARK  229  A    between atoms: _585  and  _586
REMARK  230  A    between atoms: _588  and  _590
REMARK  231  A    between atoms: _590  and  _591
REMARK  232  A    between atoms: _593  and  _595
REMARK  233  A    between atoms: _595  and  _596
REMARK  234  A    between atoms: _595  and  _598
REMARK  235  A    between atoms: _601  and  _603
REMARK  236  A    between atoms: _603  and  _604
REMARK  237  A    between atoms: _603  and  _606
REMARK  238  A    between atoms: _606  and  _607
REMARK  239  A    between atoms: _611  and  _612
REMARK  240  A    between atoms: _617  and  _619
REMARK  241  A    between atoms: _619  and  _620
REMARK  242  A    between atoms: _619  and  _622
REMARK  243  A    between atoms: _622  and  _623
REMARK  244  A    between atoms: _626  and  _628
REMARK  245  A    between atoms: _628  and  _629
REMARK  246  A    between atoms: _628  and  _631
REMARK  247  A    between atoms: _631  and  _632
REMARK  248  A    between atoms: _642  and  _644
REMARK  249  A    between atoms: _644  and  _645
REMARK  250  A    between atoms: _644  and  _647
REMARK  251  A    between atoms: _647  and  _648
REMARK  252  A    between atoms: _648  and  _649
REMARK  253  A    between atoms: _652  and  _653
REMARK  254  A    between atoms: _658  and  _660
REMARK  255  A    between atoms: _660  and  _661
REMARK  256  A    between atoms: _660  and  _663
REMARK  257  A    between atoms: _663  and  _664
REMARK  258  A    between atoms: _669  and  _671
REMARK  259  A    between atoms: _671  and  _672
REMARK  260  A    between atoms: _674  and  _676
REMARK  261  A    between atoms: _676  and  _677
REMARK  262  A    between atoms: _676  and  _679
REMARK  263  A    between atoms: _679  and  _680
REMARK  264  A    between atoms: _685  and  _686
REMARK  265  A    between atoms: _688  and  _690
REMARK  266  A    between atoms: _690  and  _691
REMARK  267  A    between atoms: _690  and  _693
REMARK  268  A    between atoms: _693  and  _694
REMARK  269  A    between atoms: _694  and  _695
REMARK  270  A    between atoms: _698  and  _700
REMARK  271  A    between atoms: _700  and  _701
REMARK  272  A    between atoms: _700  and  _703
REMARK  273  A    between atoms: _703  and  _704
REMARK                            x       y       z     vdW  Elec       q    Type
REMARK                         _______ _______ _______ _____ _____    ______ ____
ROOT
ATOM      1  CA  ILE A   1      33.860  20.332  -3.669  0.00  0.00    +0.133 C 
ENDROOT
BRANCH   1   2
ATOM      2  N   ILE A   1      33.477  20.101  -5.056  0.00  0.00    -0.239 NA
ATOM      3  H   ILE A   1      32.780  20.738  -5.493  0.00  0.00    +0.142 HD
ENDBRANCH   1   2
BRANCH   1   4
ATOM      4  C   ILE A   1      33.120  19.395  -2.709  0.00  0.00    +0.224 C 
ATOM      5  O   ILE A   1      33.677  18.924  -1.733  0.00  0.00    -0.287 OA
ENDBRANCH   1   4
BRANCH   1   6
ATOM      6  CB  ILE A   1      33.587  21.809  -3.322  0.00  0.00    +0.023 C 
ATOM      7  CG2 ILE A   1      33.665  22.080  -1.797  0.00  0.00    +0.002 C 
BRANCH   6   8
ATOM      8  CG1 ILE A   1      34.624  22.672  -4.030  0.00  0.00    +0.002 C 
ATOM      9  CD1 ILE A   1      34.215  24.137  -4.126  0.00  0.00    +0.000 C 
ENDBRANCH   6   8
ENDBRANCH   1   6
TORSDOF 4
REMARK  Name = ../refined-set-2016/1q84/1q84_pocket.pdb
REMARK  273 active torsions:
REMARK  status: ('A' for Active; 'I' for Inactive)
REMARK    1  A    between atoms: _1  and  _3
REMARK    2  A    between atoms: _3  and  _4
REMARK    3  A    between atoms: _3  and  _6
REMARK    4  A    between atoms: _6  and  _7
REMARK    5  A    between atoms: _7  and  _8
REMARK    6  A    between atoms: _13  and  _15
REMARK    7  A    between atoms: _15  and  _16
REMARK    8  A    between atoms: _15  and  _18
REMARK    9  A    between atoms: _18  and  _19
REMARK   10  A    between atoms: _24  and  _25
REMARK   11  A    between atoms: _27  and  _29
REMARK   12  A    between atoms: _29  and  _30
REMARK   13  A    between atoms: _29  and  _32
REMARK   14  A    between atoms: _35  and  _37
REMARK   15  A    between atoms: _37  and  _38
REMARK   16  A    between atoms: _37  and  _40
REMARK   17  A    between atoms: _40  and  _41
REMARK   18  A    between atoms: _44  and  _46
REMARK   19  A    between atoms: _46  and  _47
REMARK   20  A    between atoms: _46  and  _49
REMARK   21  A    between atoms: _49  and  _50
REMARK   22  A    between atoms: _53  and  _55
REMARK   23  A    between atoms: _55  and  _56
REMARK   24  A    between atoms: _55  and  _58
REMARK   25  A    between atoms: _58  and  _59
REMARK   26  A    between atoms: _62  and  _64
REMARK   27  A    between atoms: _64  and  _65
REMARK   28  A    between atoms: _64  and  _67
REMARK   29  A    between atoms: _67  and  _68
REMARK   30  A    between atoms: _73  and  _74
REMARK   31  A    between atoms: _76  and  _78
REMARK   32  A    between atoms: _78  and  _79
REMARK   33  A    between atoms: _78  and  _81
REMARK   34  A    between atoms: _81  and  _82
REMARK   35  A    between atoms: _88  and  _90
REMARK   36  A    between atoms: _90  and  _91
REMARK   37  A    between atoms: _90  and  _93
REMARK   38  A    between atoms: _93  and  _94
REMARK   39  A    between atoms: _94  and  _95
REMARK   40  A    between atoms: _98  and  _100
REMARK   41  A    between atoms: _100  and  _101
REMARK   42  A    between atoms: _103  and  _105
REMARK   43  A    between atoms: _105  and  _106
REMARK   44  A    between atoms: _105  and  _108
REMARK   45  A    between atoms: _108  and  _109
REMARK   46  A    between atoms: _112  and  _114
REMARK   47  A    between atoms: _114  and  _115
REMARK   48  A    between atoms: _114  and  _117
REMARK   49  A    between atoms: _117  and  _118
REMARK   50  A    between atoms: _118  and  _119
REMARK   51  A    between atoms: _122  and  _124
REMARK   52  A    between atoms: _124  and  _125
REMARK   53  A    between atoms: _124  and  _127
REMARK   54  A    between atoms: _127  and  _128
REMARK   55  A    between atoms: _128  and  _129
REMARK   56  A    between atoms: _131  and  _133
REMARK   57  A    between atoms: _133  and  _134
REMARK   58  A    between atoms: _133  and  _136
REMARK   59  A    between atoms: _136  and  _137
REMARK   60  A    between atoms: _147  and  _149
REMARK   61  A    between atoms: _149  and  _150
REMARK   62  A    between atoms: _149  and  _152
REMARK   63  A    between atoms: _152  and  _153
REMARK   64  A    between atoms: _158  and  _160
REMARK   65  A    between atoms: _160  and  _161
REMARK   66  A    between atoms: _160  and  _163
REMARK   67  A    between atoms: _163  and  _164
REMARK   68  A    between atoms: _174  and  _176
REMARK   69  A    between atoms: _176  and  _177
REMARK   70  A    between atoms: _176  and  _179
REMARK   71  A    between atoms: _179  and  _180
REMARK   72  A    between atoms: _185  and  _186
REMARK   73  A    between atoms: _188  and  _190
REMARK   74  A    between atoms: _190  and  _191
REMARK   75  A    between atoms: _193  and  _195
REMARK   76  A    between atoms: _195  and  _196
REMARK   77  A    between atoms: _198  and  _200
REMARK   78  A    between atoms: _200  and  _201
REMARK   79  A    between atoms: _203  and  _205
REMARK   80  A    between atoms: _205  and  _206
REMARK   81  A    between atoms: _205  and  _208
REMARK   82  A    between atoms: _208  and  _209
REMARK   83  A    between atoms: _215  and  _217
REMARK   84  A    between atoms: _217  and  _218
REMARK   85  A    between atoms: _217  and  _220
REMARK   86  A    between atoms: _220  and  _221
REMARK   87  A    between atoms: _226  and  _227
REMARK   88  A    between atoms: _229  and  _231
REMARK   89  A    between atoms: _231  and  _232
REMARK   90  A    between atoms: _231  and  _234
REMARK   91  A    between atoms: _234  and  _235
REMARK   92  A    between atoms: _237  and  _239
REMARK   93  A    between atoms: _239  and  _240
REMARK   94  A    between atoms: _242  and  _244
REMARK   95  A    between atoms: _244  and  _245
REMARK   96  A    between atoms: _248  and  _250
REMARK   97  A    between atoms: _250  and  _251
REMARK   98  A    between atoms: _250  and  _253
REMARK   99  A    between atoms: _253  and  _254
REMARK  100  A    between atoms: _257  and  _259
REMARK  101  A    between atoms: _259  and  _260
REMARK  102  A    between atoms: _259  and  _262
REMARK  103  A    between atoms: _265  and  _267
REMARK  104  A    between atoms: _267  and  _268
REMARK  105  A    between atoms: _267  and  _270
REMARK  106  A    between atoms: _270  and  _271
REMARK  107  A    between atoms: _276  and  _277
REMARK  108  A    between atoms: _279  and  _281
REMARK  109  A    between atoms: _281  and  _282
REMARK  110  A    between atoms: _281  and  _284
REMARK  111  A    between atoms: _284  and  _285
REMARK  112  A    between atoms: _290  and  _291
REMARK  113  A    between atoms: _293  and  _295
REMARK  114  A    between atoms: _295  and  _296
REMARK  115  A    between atoms: _295  and  _298
REMARK  116  A    between atoms: _298  and  _299
REMARK  117  A    between atoms: _299  and  _300
REMARK  118  A    between atoms: _303  and  _305
REMARK  119  A    between atoms: _305  and  _306
REMARK  120  A    between atoms: _305  and  _308
REMARK  121  A    between atoms: _308  and  _309
REMARK  122  A    between atoms: _311  and  _313
REMARK  123  A    between atoms: _313  and  _314
REMARK  124  A    between atoms: _317  and  _319
REMARK  125  A    between atoms: _319  and  _320
REMARK  126  A    between atoms: _322  and  _324
REMARK  127  A    between atoms: _324  and  _325
REMARK  128  A    between atoms: _328  and  _330
REMARK  129  A    between atoms: _330  and  _331
REMARK  130  A    between atoms: _330  and  _333
REMARK  131  A    between atoms: _333  and  _334
REMARK  132  A    between atoms: _336  and  _338
REMARK  133  A    between atoms: _338  and  _339
REMARK  134  A    between atoms: _338  and  _341
REMARK  135  A    between atoms: _344  and  _346
REMARK  136  A    between atoms: _346  and  _347
REMARK  137  A    between atoms: _346  and  _349
REMARK  138  A    between atoms: _349  and  _350
REMARK  139  A    between atoms: _353  and  _355
REMARK  140  A    between atoms: _355  and  _356
REMARK  141  A    between atoms: _355  and  _358
REMARK  142  A    between atoms: _358  and  _359
REMARK  143  A    between atoms: _364  and  _366
REMARK  144  A    between atoms: _366  and  _367
REMARK  145  A    between atoms: _366  and  _369
REMARK  146  A    between atoms: _369  and  _370
REMARK  147  A    between atoms: _370  and  _371
REMARK  148  A    between atoms: _374  and  _376
REMARK  149  A    between atoms: _376  and  _377
REMARK  150  A    between atoms: _376  and  _379
REMARK  151  A    between atoms: _379  and  _380
REMARK  152  A    between atoms: _390  and  _392
REMARK  153  A    between atoms: _392  and  _393
REMARK  154  A    between atoms: _392  and  _395
REMARK  155  A    between atoms: _395  and  _396
REMARK  156  A    between atoms: _401  and  _403
REMARK  157  A    between atoms: _403  and  _404
REMARK  158  A    between atoms: _403  and  _406
REMARK  159  A    between atoms: _409  and  _411
REMARK  160  A    between atoms: _411  and  _412
REMARK  161  A    between atoms: _411  and  _414
REMARK  162  A    between atoms: _414  and  _415
REMARK  163  A    between atoms: _419  and  _420
REMARK  164  A    between atoms: _425  and  _427
REMARK  165  A    between atoms: _427  and  _428
REMARK  166  A    between atoms: _427  and  _430
REMARK  167  A    between atoms: _430  and  _431
REMARK  168  A    between atoms: _431  and  _432
REMARK  169  A    between atoms: _437  and  _439
REMARK  170  A    between atoms: _439  and  _440
REMARK  171  A    between atoms: _439  and  _442
REMARK  172  A    between atoms: _442  and  _443
REMARK  173  A    between atoms: _443  and  _444
REMARK  174  A    between atoms: _447  and  _449
REMARK  175  A    between atoms: _449  and  _450
REMARK  176  A    between atoms: _449  and  _452
REMARK  177  A    between atoms: _452  and  _453
REMARK  178  A    between atoms: _455  and  _457
REMARK  179  A    between atoms: _457  and  _458
REMARK  180  A    between atoms: _457  and  _460
REMARK  181  A    between atoms: _460  and  _461
REMARK  182  A    between atoms: _464  and  _466
REMARK  183  A    between atoms: _466  and  _467
REMARK  184  A    between atoms: _466  and  _469
REMARK  185  A    between atoms: _469  and  _470
REMARK  186  A    between atoms: _476  and  _478
REMARK  187  A    between atoms: _478  and  _479
REMARK  188  A    between atoms: _478  and  _481
REMARK  189  A    between atoms: _481  and  _482
REMARK  190  A    between atoms: _482  and  _483
REMARK  191  A    between atoms: _483  and  _484
REMARK  192  A    between atoms: _493  and  _495
REMARK  193  A    between atoms: _495  and  _496
REMARK  194  A    between atoms: _495  and  _498
REMARK  195  A    between atoms: _498  and  _499
REMARK  196  A    between atoms: _505  and  _507
REMARK  197  A    between atoms: _507  and  _508
REMARK  198  A    between atoms: _507  and  _510
REMARK  199  A    between atoms: _510  and  _511
REMARK  200  A    between atoms: _513  and  _515
REMARK  201  A    between atoms: _515  and  _516
REMARK  202  A    between atoms: _515  and  _518
REMARK  203  A    between atoms: _518  and  _519
REMARK  204  A    between atoms: _519  and  _520
REMARK  205  A    between atoms: _523  and  _525
REMARK  206  A    between atoms: _525  and  _526
REMARK  207  A    between atoms: _525  and  _528
REMARK  208  A    between atoms: _528  and  _529
REMARK  209  A    between atoms: _531  and  _533
REMARK  210  A    between atoms: _533  and  _534
REMARK  211  A    between atoms: _533  and  _536
REMARK  212  A    between atoms: _536  and  _537
REMARK  213  A    between atoms: _542  and  _543
REMARK  214  A    between atoms: _545  and  _547
REMARK  215  A    between atoms: _547  and  _548
REMARK  216  A    between atoms: _547  and  _550
REMARK  217  A    between atoms: _550  and  _551
REMARK  218  A    between atoms: _557  and  _559
REMARK  219  A    between atoms: _559  and  _560
REMARK  220  A    between atoms: _559  and  _562
REMARK  221  A    between atoms: _562  and  _563
REMARK  222  A    between atoms: _566  and  _568
REMARK  223  A    between atoms: _568  and  _569
REMARK  224  A    between atoms: _568  and  _571
REMARK  225  A    between atoms: _574  and  _576
REMARK  226  A    between atoms: _576  and  _577
REMARK  227  A    between atoms: _576  and  _579
REMARK  228  A    between atoms: _579  and  _580
REMARK  229  A    between atoms: _585  and  _586
REMARK  230  A    between atoms: _588  and  _590
REMARK  231  A    between atoms: _590  and  _591
REMARK  232  A    between atoms: _593  and  _595
REMARK  233  A    between atoms: _595  and  _596
REMARK  234  A    between atoms: _595  and  _598
REMARK  235  A    between atoms: _601  and  _603
REMARK  236  A    between atoms: _603  and  _604
REMARK  237  A    between atoms: _603  and  _606
REMARK  238  A    between atoms: _606  and  _607
REMARK  239  A    between atoms: _611  and  _612
REMARK  240  A    between atoms: _617  and  _619
REMARK  241  A    between atoms: _619  and  _620
REMARK  242  A    between atoms: _619  and  _622
REMARK  243  A    between atoms: _622  and  _623
REMARK  244  A    between atoms: _626  and  _628
REMARK  245  A    between atoms: _628  and  _629
REMARK  246  A    between atoms: _628  and  _631
REMARK  247  A    between atoms: _631  and  _632
REMARK  248  A    between atoms: _642  and  _644
REMARK  249  A    between atoms: _644  and  _645
REMARK  250  A    between atoms: _644  and  _647
REMARK  251  A    between atoms: _647  and  _648
REMARK  252  A    between atoms: _648  and  _649
REMARK  253  A    between atoms: _652  and  _653
REMARK  254  A    between atoms: _658  and  _660
REMARK  255  A    between atoms: _660  and  _661
REMARK  256  A    between atoms: _660  and  _663
REMARK  257  A    between atoms: _663  and  _664
REMARK  258  A    between atoms: _669  and  _671
REMARK  259  A    between atoms: _671  and  _672
REMARK  260  A    between atoms: _674  and  _676
REMARK  261  A    between atoms: _676  and  _677
REMARK  262  A    between atoms: _676  and  _679
REMARK  263  A    between atoms: _679  and  _680
REMARK  264  A    between atoms: _685  and  _686
REMARK  265  A    between atoms: _688  and  _690
REMARK  266  A    between atoms: _690  and  _691
REMARK  267  A    between atoms: _690  and  _693
REMARK  268  A    between atoms: _693  and  _694
REMARK  269  A    between atoms: _694  and  _695
REMARK  270  A    between atoms: _698  and  _700
REMARK  271  A    between atoms: _700  and  _701
REMARK  272  A    between atoms: _700  and  _703
REMARK  273  A    between atoms: _703  and  _704
REMARK                            x       y       z     vdW  Elec       q    Type
REMARK                         _______ _______ _______ _____ _____    ______ ____
ROOT
ATOM      1  N   PRO A   1      34.535  15.469  -3.416  0.00  0.00    -0.212 NA
ATOM      2  CD  PRO A   1      34.291  15.621  -1.964  0.00  0.00    +0.089 C 
ATOM      3  CG  PRO A   1      35.676  15.723  -1.403  0.00  0.00    +0.021 C 
ATOM      4  CB  PRO A   1      36.527  16.259  -2.451  0.00  0.00    +0.027 C 
ATOM      5  CA  PRO A   1      35.928  15.772  -3.765  0.00  0.00    +0.137 C 
ENDROOT
BRANCH   5   6
ATOM      6  C   PRO A   1      36.714  14.609  -4.306  0.00  0.00    +0.224 C 
ATOM      7  O   PRO A   1      37.679  14.833  -5.027  0.00  0.00    -0.287 OA
ENDBRANCH   5   6
TORSDOF 1
REMARK  Name = ../refined-set-2016/1q84/1q84_pocket.pdb
REMARK  273 active torsions:
REMARK  status: ('A' for Active; 'I' for Inactive)
REMARK    1  A    between atoms: _1  and  _3
REMARK    2  A    between atoms: _3  and  _4
REMARK    3  A    between atoms: _3  and  _6
REMARK    4  A    between atoms: _6  and  _7
REMARK    5  A    between atoms: _7  and  _8
REMARK    6  A    between atoms: _13  and  _15
REMARK    7  A    between atoms: _15  and  _16
REMARK    8  A    between atoms: _15  and  _18
REMARK    9  A    between atoms: _18  and  _19
REMARK   10  A    between atoms: _24  and  _25
REMARK   11  A    between atoms: _27  and  _29
REMARK   12  A    between atoms: _29  and  _30
REMARK   13  A    between atoms: _29  and  _32
REMARK   14  A    between atoms: _35  and  _37
REMARK   15  A    between atoms: _37  and  _38
REMARK   16  A    between atoms: _37  and  _40
REMARK   17  A    between atoms: _40  and  _41
REMARK   18  A    between atoms: _44  and  _46
REMARK   19  A    between atoms: _46  and  _47
REMARK   20  A    between atoms: _46  and  _49
REMARK   21  A    between atoms: _49  and  _50
REMARK   22  A    between atoms: _53  and  _55
REMARK   23  A    between atoms: _55  and  _56
REMARK   24  A    between atoms: _55  and  _58
REMARK   25  A    between atoms: _58  and  _59
REMARK   26  A    between atoms: _62  and  _64
REMARK   27  A    between atoms: _64  and  _65
REMARK   28  A    between atoms: _64  and  _67
REMARK   29  A    between atoms: _67  and  _68
REMARK   30  A    between atoms: _73  and  _74
REMARK   31  A    between atoms: _76  and  _78
REMARK   32  A    between atoms: _78  and  _79
REMARK   33  A    between atoms: _78  and  _81
REMARK   34  A    between atoms: _81  and  _82
REMARK   35  A    between atoms: _88  and  _90
REMARK   36  A    between atoms: _90  and  _91
REMARK   37  A    between atoms: _90  and  _93
REMARK   38  A    between atoms: _93  and  _94
REMARK   39  A    between atoms: _94  and  _95
REMARK   40  A    between atoms: _98  and  _100
REMARK   41  A    between atoms: _100  and  _101
REMARK   42  A    between atoms: _103  and  _105
REMARK   43  A    between atoms: _105  and  _106
REMARK   44  A    between atoms: _105  and  _108
REMARK   45  A    between atoms: _108  and  _109
REMARK   46  A    between atoms: _112  and  _114
REMARK   47  A    between atoms: _114  and  _115
REMARK   48  A    between atoms: _114  and  _117
REMARK   49  A    between atoms: _117  and  _118
REMARK   50  A    between atoms: _118  and  _119
REMARK   51  A    between atoms: _122  and  _124
REMARK   52  A    between atoms: _124  and  _125
REMARK   53  A    between atoms: _124  and  _127
REMARK   54  A    between atoms: _127  and  _128
REMARK   55  A    between atoms: _128  and  _129
REMARK   56  A    between atoms: _131  and  _133
REMARK   57  A    between atoms: _133  and  _134
REMARK   58  A    between atoms: _133  and  _136
REMARK   59  A    between atoms: _136  and  _137
REMARK   60  A    between atoms: _147  and  _149
REMARK   61  A    between atoms: _149  and  _150
REMARK   62  A    between atoms: _149  and  _152
REMARK   63  A    between atoms: _152  and  _153
REMARK   64  A    between atoms: _158  and  _160
REMARK   65  A    between atoms: _160  and  _161
REMARK   66  A    between atoms: _160  and  _163
REMARK   67  A    between atoms: _163  and  _164
REMARK   68  A    between atoms: _174  and  _176
REMARK   69  A    between atoms: _176  and  _177
REMARK   70  A    between atoms: _176  and  _179
REMARK   71  A    between atoms: _179  and  _180
REMARK   72  A    between atoms: _185  and  _186
REMARK   73  A    between atoms: _188  and  _190
REMARK   74  A    between atoms: _190  and  _191
REMARK   75  A    between atoms: _193  and  _195
REMARK   76  A    between atoms: _195  and  _196
REMARK   77  A    between atoms: _198  and  _200
REMARK   78  A    between atoms: _200  and  _201
REMARK   79  A    between atoms: _203  and  _205
REMARK   80  A    between atoms: _205  and  _206
REMARK   81  A    between atoms: _205  and  _208
REMARK   82  A    between atoms: _208  and  _209
REMARK   83  A    between atoms: _215  and  _217
REMARK   84  A    between atoms: _217  and  _218
REMARK   85  A    between atoms: _217  and  _220
REMARK   86  A    between atoms: _220  and  _221
REMARK   87  A    between atoms: _226  and  _227
REMARK   88  A    between atoms: _229  and  _231
REMARK   89  A    between atoms: _231  and  _232
REMARK   90  A    between atoms: _231  and  _234
REMARK   91  A    between atoms: _234  and  _235
REMARK   92  A    between atoms: _237  and  _239
REMARK   93  A    between atoms: _239  and  _240
REMARK   94  A    between atoms: _242  and  _244
REMARK   95  A    between atoms: _244  and  _245
REMARK   96  A    between atoms: _248  and  _250
REMARK   97  A    between atoms: _250  and  _251
REMARK   98  A    between atoms: _250  and  _253
REMARK   99  A    between atoms: _253  and  _254
REMARK  100  A    between atoms: _257  and  _259
REMARK  101  A    between atoms: _259  and  _260
REMARK  102  A    between atoms: _259  and  _262
REMARK  103  A    between atoms: _265  and  _267
REMARK  104  A    between atoms: _267  and  _268
REMARK  105  A    between atoms: _267  and  _270
REMARK  106  A    between atoms: _270  and  _271
REMARK  107  A    between atoms: _276  and  _277
REMARK  108  A    between atoms: _279  and  _281
REMARK  109  A    between atoms: _281  and  _282
REMARK  110  A    between atoms: _281  and  _284
REMARK  111  A    between atoms: _284  and  _285
REMARK  112  A    between atoms: _290  and  _291
REMARK  113  A    between atoms: _293  and  _295
REMARK  114  A    between atoms: _295  and  _296
REMARK  115  A    between atoms: _295  and  _298
REMARK  116  A    between atoms: _298  and  _299
REMARK  117  A    between atoms: _299  and  _300
REMARK  118  A    between atoms: _303  and  _305
REMARK  119  A    between atoms: _305  and  _306
REMARK  120  A    between atoms: _305  and  _308
REMARK  121  A    between atoms: _308  and  _309
REMARK  122  A    between atoms: _311  and  _313
REMARK  123  A    between atoms: _313  and  _314
REMARK  124  A    between atoms: _317  and  _319
REMARK  125  A    between atoms: _319  and  _320
REMARK  126  A    between atoms: _322  and  _324
REMARK  127  A    between atoms: _324  and  _325
REMARK  128  A    between atoms: _328  and  _330
REMARK  129  A    between atoms: _330  and  _331
REMARK  130  A    between atoms: _330  and  _333
REMARK  131  A    between atoms: _333  and  _334
REMARK  132  A    between atoms: _336  and  _338
REMARK  133  A    between atoms: _338  and  _339
REMARK  134  A    between atoms: _338  and  _341
REMARK  135  A    between atoms: _344  and  _346
REMARK  136  A    between atoms: _346  and  _347
REMARK  137  A    between atoms: _346  and  _349
REMARK  138  A    between atoms: _349  and  _350
REMARK  139  A    between atoms: _353  and  _355
REMARK  140  A    between atoms: _355  and  _356
REMARK  141  A    between atoms: _355  and  _358
REMARK  142  A    between atoms: _358  and  _359
REMARK  143  A    between atoms: _364  and  _366
REMARK  144  A    between atoms: _366  and  _367
REMARK  145  A    between atoms: _366  and  _369
REMARK  146  A    between atoms: _369  and  _370
REMARK  147  A    between atoms: _370  and  _371
REMARK  148  A    between atoms: _374  and  _376
REMARK  149  A    between atoms: _376  and  _377
REMARK  150  A    between atoms: _376  and  _379
REMARK  151  A    between atoms: _379  and  _380
REMARK  152  A    between atoms: _390  and  _392
REMARK  153  A    between atoms: _392  and  _393
REMARK  154  A    between atoms: _392  and  _395
REMARK  155  A    between atoms: _395  and  _396
REMARK  156  A    between atoms: _401  and  _403
REMARK  157  A    between atoms: _403  and  _404
REMARK  158  A    between atoms: _403  and  _406
REMARK  159  A    between atoms: _409  and  _411
REMARK  160  A    between atoms: _411  and  _412
REMARK  161  A    between atoms: _411  and  _414
REMARK  162  A    between atoms: _414  and  _415
REMARK  163  A    between atoms: _419  and  _420
REMARK  164  A    between atoms: _425  and  _427
REMARK  165  A    between atoms: _427  and  _428
REMARK  166  A    between atoms: _427  and  _430
REMARK  167  A    between atoms: _430  and  _431
REMARK  168  A    between atoms: _431  and  _432
REMARK  169  A    between atoms: _437  and  _439
REMARK  170  A    between atoms: _439  and  _440
REMARK  171  A    between atoms: _439  and  _442
REMARK  172  A    between atoms: _442  and  _443
REMARK  173  A    between atoms: _443  and  _444
REMARK  174  A    between atoms: _447  and  _449
REMARK  175  A    between atoms: _449  and  _450
REMARK  176  A    between atoms: _449  and  _452
REMARK  177  A    between atoms: _452  and  _453
REMARK  178  A    between atoms: _455  and  _457
REMARK  179  A    between atoms: _457  and  _458
REMARK  180  A    between atoms: _457  and  _460
REMARK  181  A    between atoms: _460  and  _461
REMARK  182  A    between atoms: _464  and  _466
REMARK  183  A    between atoms: _466  and  _467
REMARK  184  A    between atoms: _466  and  _469
REMARK  185  A    between atoms: _469  and  _470
REMARK  186  A    between atoms: _476  and  _478
REMARK  187  A    between atoms: _478  and  _479
REMARK  188  A    between atoms: _478  and  _481
REMARK  189  A    between atoms: _481  and  _482
REMARK  190  A    between atoms: _482  and  _483
REMARK  191  A    between atoms: _483  and  _484
REMARK  192  A    between atoms: _493  and  _495
REMARK  193  A    between atoms: _495  and  _496
REMARK  194  A    between atoms: _495  and  _498
REMARK  195  A    between atoms: _498  and  _499
REMARK  196  A    between atoms: _505  and  _507
REMARK  197  A    between atoms: _507  and  _508
REMARK  198  A    between atoms: _507  and  _510
REMARK  199  A    between atoms: _510  and  _511
REMARK  200  A    between atoms: _513  and  _515
REMARK  201  A    between atoms: _515  and  _516
REMARK  202  A    between atoms: _515  and  _518
REMARK  203  A    between atoms: _518  and  _519
REMARK  204  A    between atoms: _519  and  _520
REMARK  205  A    between atoms: _523  and  _525
REMARK  206  A    between atoms: _525  and  _526
REMARK  207  A    between atoms: _525  and  _528
REMARK  208  A    between atoms: _528  and  _529
REMARK  209  A    between atoms: _531  and  _533
REMARK  210  A    between atoms: _533  and  _534
REMARK  211  A    between atoms: _533  and  _536
REMARK  212  A    between atoms: _536  and  _537
REMARK  213  A    between atoms: _542  and  _543
REMARK  214  A    between atoms: _545  and  _547
REMARK  215  A    between atoms: _547  and  _548
REMARK  216  A    between atoms: _547  and  _550
REMARK  217  A    between atoms: _550  and  _551
REMARK  218  A    between atoms: _557  and  _559
REMARK  219  A    between atoms: _559  and  _560
REMARK  220  A    between atoms: _559  and  _562
REMARK  221  A    between atoms: _562  and  _563
REMARK  222  A    between atoms: _566  and  _568
REMARK  223  A    between atoms: _568  and  _569
REMARK  224  A    between atoms: _568  and  _571
REMARK  225  A    between atoms: _574  and  _576
REMARK  226  A    between atoms: _576  and  _577
REMARK  227  A    between atoms: _576  and  _579
REMARK  228  A    between atoms: _579  and  _580
REMARK  229  A    between atoms: _585  and  _586
REMARK  230  A    between atoms: _588  and  _590
REMARK  231  A    between atoms: _590  and  _591
REMARK  232  A    between atoms: _593  and  _595
REMARK  233  A    between atoms: _595  and  _596
REMARK  234  A    between atoms: _595  and  _598
REMARK  235  A    between atoms: _601  and  _603
REMARK  236  A    between atoms: _603  and  _604
REMARK  237  A    between atoms: _603  and  _606
REMARK  238  A    between atoms: _606  and  _607
REMARK  239  A    between atoms: _611  and  _612
REMARK  240  A    between atoms: _617  and  _619
REMARK  241  A    between atoms: _619  and  _620
REMARK  242  A    between atoms: _619  and  _622
REMARK  243  A    between atoms: _622  and  _623
REMARK  244  A    between atoms: _626  and  _628
REMARK  245  A    between atoms: _628  and  _629
REMARK  246  A    between atoms: _628  and  _631
REMARK  247  A    between atoms: _631  and  _632
REMARK  248  A    between atoms: _642  and  _644
REMARK  249  A    between atoms: _644  and  _645
REMARK  250  A    between atoms: _644  and  _647
REMARK  251  A    between atoms: _647  and  _648
REMARK  252  A    between atoms: _648  and  _649
REMARK  253  A    between atoms: _652  and  _653
REMARK  254  A    between atoms: _658  and  _660
REMARK  255  A    between atoms: _660  and  _661
REMARK  256  A    between atoms: _660  and  _663
REMARK  257  A    between atoms: _663  and  _664
REMARK  258  A    between atoms: _669  and  _671
REMARK  259  A    between atoms: _671  and  _672
REMARK  260  A    between atoms: _674  and  _676
REMARK  261  A    between atoms: _676  and  _677
REMARK  262  A    between atoms: _676  and  _679
REMARK  263  A    between atoms: _679  and  _680
REMARK  264  A    between atoms: _685  and  _686
REMARK  265  A    between atoms: _688  and  _690
REMARK  266  A    between atoms: _690  and  _691
REMARK  267  A    between atoms: _690  and  _693
REMARK  268  A    between atoms: _693  and  _694
REMARK  269  A    between atoms: _694  and  _695
REMARK  270  A    between atoms: _698  and  _700
REMARK  271  A    between atoms: _700  and  _701
REMARK  272  A    between atoms: _700  and  _703
REMARK  273  A    between atoms: _703  and  _704
REMARK                            x       y       z     vdW  Elec       q    Type
REMARK                         _______ _______ _______ _____ _____    ______ ____
ROOT
ATOM      1  CA  LEU A   1      16.263  28.070  14.797  0.00  0.00    +0.133 C 
ENDROOT
BRANCH   1   2
ATOM      2  N   LEU A   1      15.072  28.145  15.654  0.00  0.00    -0.239 NA
ATOM      3  H   LEU A   1      14.207  27.642  15.371  0.00  0.00    +0.142 HD
ENDBRANCH   1   2
BRANCH   1   4
ATOM      4  C   LEU A   1      16.666  29.462  14.269  0.00  0.00    +0.224 C 
ATOM      5  O   LEU A   1      15.814  30.277  13.932  0.00  0.00    -0.287 OA
ENDBRANCH   1   4
BRANCH   1   6
ATOM      6  CB  LEU A   1      16.032  27.091  13.641  0.00  0.00    +0.025 C 
BRANCH   6   7
ATOM      7  CG  LEU A   1      17.239  26.261  13.166  0.00  0.00    +0.002 C 
ATOM      8  CD2 LEU A   1      17.652  25.293  14.174  0.00  0.00    +0.000 C 
ATOM      9  CD1 LEU A   1      16.906  25.491  11.920  0.00  0.00    +0.000 C 
ENDBRANCH   6   7
ENDBRANCH   1   6
TORSDOF 4
REMARK  Name = ../refined-set-2016/1q84/1q84_pocket.pdb
REMARK  273 active torsions:
REMARK  status: ('A' for Active; 'I' for Inactive)
REMARK    1  A    between atoms: _1  and  _3
REMARK    2  A    between atoms: _3  and  _4
REMARK    3  A    between atoms: _3  and  _6
REMARK    4  A    between atoms: _6  and  _7
REMARK    5  A    between atoms: _7  and  _8
REMARK    6  A    between atoms: _13  and  _15
REMARK    7  A    between atoms: _15  and  _16
REMARK    8  A    between atoms: _15  and  _18
REMARK    9  A    between atoms: _18  and  _19
REMARK   10  A    between atoms: _24  and  _25
REMARK   11  A    between atoms: _27  and  _29
REMARK   12  A    between atoms: _29  and  _30
REMARK   13  A    between atoms: _29  and  _32
REMARK   14  A    between atoms: _35  and  _37
REMARK   15  A    between atoms: _37  and  _38
REMARK   16  A    between atoms: _37  and  _40
REMARK   17  A    between atoms: _40  and  _41
REMARK   18  A    between atoms: _44  and  _46
REMARK   19  A    between atoms: _46  and  _47
REMARK   20  A    between atoms: _46  and  _49
REMARK   21  A    between atoms: _49  and  _50
REMARK   22  A    between atoms: _53  and  _55
REMARK   23  A    between atoms: _55  and  _56
REMARK   24  A    between atoms: _55  and  _58
REMARK   25  A    between atoms: _58  and  _59
REMARK   26  A    between atoms: _62  and  _64
REMARK   27  A    between atoms: _64  and  _65
REMARK   28  A    between atoms: _64  and  _67
REMARK   29  A    between atoms: _67  and  _68
REMARK   30  A    between atoms: _73  and  _74
REMARK   31  A    between atoms: _76  and  _78
REMARK   32  A    between atoms: _78  and  _79
REMARK   33  A    between atoms: _78  and  _81
REMARK   34  A    between atoms: _81  and  _82
REMARK   35  A    between atoms: _88  and  _90
REMARK   36  A    between atoms: _90  and  _91
REMARK   37  A    between atoms: _90  and  _93
REMARK   38  A    between atoms: _93  and  _94
REMARK   39  A    between atoms: _94  and  _95
REMARK   40  A    between atoms: _98  and  _100
REMARK   41  A    between atoms: _100  and  _101
REMARK   42  A    between atoms: _103  and  _105
REMARK   43  A    between atoms: _105  and  _106
REMARK   44  A    between atoms: _105  and  _108
REMARK   45  A    between atoms: _108  and  _109
REMARK   46  A    between atoms: _112  and  _114
REMARK   47  A    between atoms: _114  and  _115
REMARK   48  A    between atoms: _114  and  _117
REMARK   49  A    between atoms: _117  and  _118
REMARK   50  A    between atoms: _118  and  _119
REMARK   51  A    between atoms: _122  and  _124
REMARK   52  A    between atoms: _124  and  _125
REMARK   53  A    between atoms: _124  and  _127
REMARK   54  A    between atoms: _127  and  _128
REMARK   55  A    between atoms: _128  and  _129
REMARK   56  A    between atoms: _131  and  _133
REMARK   57  A    between atoms: _133  and  _134
REMARK   58  A    between atoms: _133  and  _136
REMARK   59  A    between atoms: _136  and  _137
REMARK   60  A    between atoms: _147  and  _149
REMARK   61  A    between atoms: _149  and  _150
REMARK   62  A    between atoms: _149  and  _152
REMARK   63  A    between atoms: _152  and  _153
REMARK   64  A    between atoms: _158  and  _160
REMARK   65  A    between atoms: _160  and  _161
REMARK   66  A    between atoms: _160  and  _163
REMARK   67  A    between atoms: _163  and  _164
REMARK   68  A    between atoms: _174  and  _176
REMARK   69  A    between atoms: _176  and  _177
REMARK   70  A    between atoms: _176  and  _179
REMARK   71  A    between atoms: _179  and  _180
REMARK   72  A    between atoms: _185  and  _186
REMARK   73  A    between atoms: _188  and  _190
REMARK   74  A    between atoms: _190  and  _191
REMARK   75  A    between atoms: _193  and  _195
REMARK   76  A    between atoms: _195  and  _196
REMARK   77  A    between atoms: _198  and  _200
REMARK   78  A    between atoms: _200  and  _201
REMARK   79  A    between atoms: _203  and  _205
REMARK   80  A    between atoms: _205  and  _206
REMARK   81  A    between atoms: _205  and  _208
REMARK   82  A    between atoms: _208  and  _209
REMARK   83  A    between atoms: _215  and  _217
REMARK   84  A    between atoms: _217  and  _218
REMARK   85  A    between atoms: _217  and  _220
REMARK   86  A    between atoms: _220  and  _221
REMARK   87  A    between atoms: _226  and  _227
REMARK   88  A    between atoms: _229  and  _231
REMARK   89  A    between atoms: _231  and  _232
REMARK   90  A    between atoms: _231  and  _234
REMARK   91  A    between atoms: _234  and  _235
REMARK   92  A    between atoms: _237  and  _239
REMARK   93  A    between atoms: _239  and  _240
REMARK   94  A    between atoms: _242  and  _244
REMARK   95  A    between atoms: _244  and  _245
REMARK   96  A    between atoms: _248  and  _250
REMARK   97  A    between atoms: _250  and  _251
REMARK   98  A    between atoms: _250  and  _253
REMARK   99  A    between atoms: _253  and  _254
REMARK  100  A    between atoms: _257  and  _259
REMARK  101  A    between atoms: _259  and  _260
REMARK  102  A    between atoms: _259  and  _262
REMARK  103  A    between atoms: _265  and  _267
REMARK  104  A    between atoms: _267  and  _268
REMARK  105  A    between atoms: _267  and  _270
REMARK  106  A    between atoms: _270  and  _271
REMARK  107  A    between atoms: _276  and  _277
REMARK  108  A    between atoms: _279  and  _281
REMARK  109  A    between atoms: _281  and  _282
REMARK  110  A    between atoms: _281  and  _284
REMARK  111  A    between atoms: _284  and  _285
REMARK  112  A    between atoms: _290  and  _291
REMARK  113  A    between atoms: _293  and  _295
REMARK  114  A    between atoms: _295  and  _296
REMARK  115  A    between atoms: _295  and  _298
REMARK  116  A    between atoms: _298  and  _299
REMARK  117  A    between atoms: _299  and  _300
REMARK  118  A    between atoms: _303  and  _305
REMARK  119  A    between atoms: _305  and  _306
REMARK  120  A    between atoms: _305  and  _308
REMARK  121  A    between atoms: _308  and  _309
REMARK  122  A    between atoms: _311  and  _313
REMARK  123  A    between atoms: _313  and  _314
REMARK  124  A    between atoms: _317  and  _319
REMARK  125  A    between atoms: _319  and  _320
REMARK  126  A    between atoms: _322  and  _324
REMARK  127  A    between atoms: _324  and  _325
REMARK  128  A    between atoms: _328  and  _330
REMARK  129  A    between atoms: _330  and  _331
REMARK  130  A    between atoms: _330  and  _333
REMARK  131  A    between atoms: _333  and  _334
REMARK  132  A    between atoms: _336  and  _338
REMARK  133  A    between atoms: _338  and  _339
REMARK  134  A    between atoms: _338  and  _341
REMARK  135  A    between atoms: _344  and  _346
REMARK  136  A    between atoms: _346  and  _347
REMARK  137  A    between atoms: _346  and  _349
REMARK  138  A    between atoms: _349  and  _350
REMARK  139  A    between atoms: _353  and  _355
REMARK  140  A    between atoms: _355  and  _356
REMARK  141  A    between atoms: _355  and  _358
REMARK  142  A    between atoms: _358  and  _359
REMARK  143  A    between atoms: _364  and  _366
REMARK  144  A    between atoms: _366  and  _367
REMARK  145  A    between atoms: _366  and  _369
REMARK  146  A    between atoms: _369  and  _370
REMARK  147  A    between atoms: _370  and  _371
REMARK  148  A    between atoms: _374  and  _376
REMARK  149  A    between atoms: _376  and  _377
REMARK  150  A    between atoms: _376  and  _379
REMARK  151  A    between atoms: _379  and  _380
REMARK  152  A    between atoms: _390  and  _392
REMARK  153  A    between atoms: _392  and  _393
REMARK  154  A    between atoms: _392  and  _395
REMARK  155  A    between atoms: _395  and  _396
REMARK  156  A    between atoms: _401  and  _403
REMARK  157  A    between atoms: _403  and  _404
REMARK  158  A    between atoms: _403  and  _406
REMARK  159  A    between atoms: _409  and  _411
REMARK  160  A    between atoms: _411  and  _412
REMARK  161  A    between atoms: _411  and  _414
REMARK  162  A    between atoms: _414  and  _415
REMARK  163  A    between atoms: _419  and  _420
REMARK  164  A    between atoms: _425  and  _427
REMARK  165  A    between atoms: _427  and  _428
REMARK  166  A    between atoms: _427  and  _430
REMARK  167  A    between atoms: _430  and  _431
REMARK  168  A    between atoms: _431  and  _432
REMARK  169  A    between atoms: _437  and  _439
REMARK  170  A    between atoms: _439  and  _440
REMARK  171  A    between atoms: _439  and  _442
REMARK  172  A    between atoms: _442  and  _443
REMARK  173  A    between atoms: _443  and  _444
REMARK  174  A    between atoms: _447  and  _449
REMARK  175  A    between atoms: _449  and  _450
REMARK  176  A    between atoms: _449  and  _452
REMARK  177  A    between atoms: _452  and  _453
REMARK  178  A    between atoms: _455  and  _457
REMARK  179  A    between atoms: _457  and  _458
REMARK  180  A    between atoms: _457  and  _460
REMARK  181  A    between atoms: _460  and  _461
REMARK  182  A    between atoms: _464  and  _466
REMARK  183  A    between atoms: _466  and  _467
REMARK  184  A    between atoms: _466  and  _469
REMARK  185  A    between atoms: _469  and  _470
REMARK  186  A    between atoms: _476  and  _478
REMARK  187  A    between atoms: _478  and  _479
REMARK  188  A    between atoms: _478  and  _481
REMARK  189  A    between atoms: _481  and  _482
REMARK  190  A    between atoms: _482  and  _483
REMARK  191  A    between atoms: _483  and  _484
REMARK  192  A    between atoms: _493  and  _495
REMARK  193  A    between atoms: _495  and  _496
REMARK  194  A    between atoms: _495  and  _498
REMARK  195  A    between atoms: _498  and  _499
REMARK  196  A    between atoms: _505  and  _507
REMARK  197  A    between atoms: _507  and  _508
REMARK  198  A    between atoms: _507  and  _510
REMARK  199  A    between atoms: _510  and  _511
REMARK  200  A    between atoms: _513  and  _515
REMARK  201  A    between atoms: _515  and  _516
REMARK  202  A    between atoms: _515  and  _518
REMARK  203  A    between atoms: _518  and  _519
REMARK  204  A    between atoms: _519  and  _520
REMARK  205  A    between atoms: _523  and  _525
REMARK  206  A    between atoms: _525  and  _526
REMARK  207  A    between atoms: _525  and  _528
REMARK  208  A    between atoms: _528  and  _529
REMARK  209  A    between atoms: _531  and  _533
REMARK  210  A    between atoms: _533  and  _534
REMARK  211  A    between atoms: _533  and  _536
REMARK  212  A    between atoms: _536  and  _537
REMARK  213  A    between atoms: _542  and  _543
REMARK  214  A    between atoms: _545  and  _547
REMARK  215  A    between atoms: _547  and  _548
REMARK  216  A    between atoms: _547  and  _550
REMARK  217  A    between atoms: _550  and  _551
REMARK  218  A    between atoms: _557  and  _559
REMARK  219  A    between atoms: _559  and  _560
REMARK  220  A    between atoms: _559  and  _562
REMARK  221  A    between atoms: _562  and  _563
REMARK  222  A    between atoms: _566  and  _568
REMARK  223  A    between atoms: _568  and  _569
REMARK  224  A    between atoms: _568  and  _571
REMARK  225  A    between atoms: _574  and  _576
REMARK  226  A    between atoms: _576  and  _577
REMARK  227  A    between atoms: _576  and  _579
REMARK  228  A    between atoms: _579  and  _580
REMARK  229  A    between atoms: _585  and  _586
REMARK  230  A    between atoms: _588  and  _590
REMARK  231  A    between atoms: _590  and  _591
REMARK  232  A    between atoms: _593  and  _595
REMARK  233  A    between atoms: _595  and  _596
REMARK  234  A    between atoms: _595  and  _598
REMARK  235  A    between atoms: _601  and  _603
REMARK  236  A    between atoms: _603  and  _604
REMARK  237  A    between atoms: _603  and  _606
REMARK  238  A    between atoms: _606  and  _607
REMARK  239  A    between atoms: _611  and  _612
REMARK  240  A    between atoms: _617  and  _619
REMARK  241  A    between atoms: _619  and  _620
REMARK  242  A    between atoms: _619  and  _622
REMARK  243  A    between atoms: _622  and  _623
REMARK  244  A    between atoms: _626  and  _628
REMARK  245  A    between atoms: _628  and  _629
REMARK  246  A    between atoms: _628  and  _631
REMARK  247  A    between atoms: _631  and  _632
REMARK  248  A    between atoms: _642  and  _644
REMARK  249  A    between atoms: _644  and  _645
REMARK  250  A    between atoms: _644  and  _647
REMARK  251  A    between atoms: _647  and  _648
REMARK  252  A    between atoms: _648  and  _649
REMARK  253  A    between atoms: _652  and  _653
REMARK  254  A    between atoms: _658  and  _660
REMARK  255  A    between atoms: _660  and  _661
REMARK  256  A    between atoms: _660  and  _663
REMARK  257  A    between atoms: _663  and  _664
REMARK  258  A    between atoms: _669  and  _671
REMARK  259  A    between atoms: _671  and  _672
REMARK  260  A    between atoms: _674  and  _676
REMARK  261  A    between atoms: _676  and  _677
REMARK  262  A    between atoms: _676  and  _679
REMARK  263  A    between atoms: _679  and  _680
REMARK  264  A    between atoms: _685  and  _686
REMARK  265  A    between atoms: _688  and  _690
REMARK  266  A    between atoms: _690  and  _691
REMARK  267  A    between atoms: _690  and  _693
REMARK  268  A    between atoms: _693  and  _694
REMARK  269  A    between atoms: _694  and  _695
REMARK  270  A    between atoms: _698  and  _700
REMARK  271  A    between atoms: _700  and  _701
REMARK  272  A    between atoms: _700  and  _703
REMARK  273  A    between atoms: _703  and  _704
REMARK                            x       y       z     vdW  Elec       q    Type
REMARK                         _______ _______ _______ _____ _____    ______ ____
ROOT
ATOM      1  CG  TRP A   1      21.377  27.761  11.072  0.00  0.00    -0.002 A 
ATOM      2  CD1 TRP A   1      21.421  27.076  12.232  0.00  0.00    +0.068 A 
ATOM      3  NE1 TRP A   1      22.719  26.981  12.669  0.00  0.00    -0.352 N 
ATOM      4  HE1 TRP A   1      23.026  26.515  13.547  0.00  0.00    +0.166 HD
ATOM      5  CE2 TRP A   1      23.545  27.596  11.768  0.00  0.00    +0.056 A 
ATOM      6  CZ2 TRP A   1      24.922  27.747  11.777  0.00  0.00    +0.017 A 
ATOM      7  CH2 TRP A   1      25.494  28.404  10.726  0.00  0.00    +0.001 A 
ATOM      8  CZ3 TRP A   1      24.698  28.942   9.687  0.00  0.00    +0.000 A 
ATOM      9  CE3 TRP A   1      23.331  28.802   9.695  0.00  0.00    +0.001 A 
ATOM     10  CD2 TRP A   1      22.731  28.103  10.744  0.00  0.00    +0.013 A 
ENDROOT
BRANCH   1  11
ATOM     11  CB  TRP A   1      20.198  28.104  10.327  0.00  0.00    +0.053 C 
BRANCH  11  12
ATOM     12  CA  TRP A   1      19.756  29.555  10.548  0.00  0.00    +0.137 C 
BRANCH  12  13
ATOM     13  N   TRP A   1      19.307  29.765  11.916  0.00  0.00    -0.239 NA
ATOM     14  H   TRP A   1      19.148  28.936  12.523  0.00  0.00    +0.142 HD
ENDBRANCH  12  13
BRANCH  12  15
ATOM     15  C   TRP A   1      18.576  29.870   9.649  0.00  0.00    +0.224 C 
ATOM     16  O   TRP A   1      17.456  29.786  10.084  0.00  0.00    -0.287 OA
ENDBRANCH  12  15
ENDBRANCH  11  12
ENDBRANCH   1  11
TORSDOF 4
REMARK  Name = ../refined-set-2016/1q84/1q84_pocket.pdb
REMARK  273 active torsions:
REMARK  status: ('A' for Active; 'I' for Inactive)
REMARK    1  A    between atoms: _1  and  _3
REMARK    2  A    between atoms: _3  and  _4
REMARK    3  A    between atoms: _3  and  _6
REMARK    4  A    between atoms: _6  and  _7
REMARK    5  A    between atoms: _7  and  _8
REMARK    6  A    between atoms: _13  and  _15
REMARK    7  A    between atoms: _15  and  _16
REMARK    8  A    between atoms: _15  and  _18
REMARK    9  A    between atoms: _18  and  _19
REMARK   10  A    between atoms: _24  and  _25
REMARK   11  A    between atoms: _27  and  _29
REMARK   12  A    between atoms: _29  and  _30
REMARK   13  A    between atoms: _29  and  _32
REMARK   14  A    between atoms: _35  and  _37
REMARK   15  A    between atoms: _37  and  _38
REMARK   16  A    between atoms: _37  and  _40
REMARK   17  A    between atoms: _40  and  _41
REMARK   18  A    between atoms: _44  and  _46
REMARK   19  A    between atoms: _46  and  _47
REMARK   20  A    between atoms: _46  and  _49
REMARK   21  A    between atoms: _49  and  _50
REMARK   22  A    between atoms: _53  and  _55
REMARK   23  A    between atoms: _55  and  _56
REMARK   24  A    between atoms: _55  and  _58
REMARK   25  A    between atoms: _58  and  _59
REMARK   26  A    between atoms: _62  and  _64
REMARK   27  A    between atoms: _64  and  _65
REMARK   28  A    between atoms: _64  and  _67
REMARK   29  A    between atoms: _67  and  _68
REMARK   30  A    between atoms: _73  and  _74
REMARK   31  A    between atoms: _76  and  _78
REMARK   32  A    between atoms: _78  and  _79
REMARK   33  A    between atoms: _78  and  _81
REMARK   34  A    between atoms: _81  and  _82
REMARK   35  A    between atoms: _88  and  _90
REMARK   36  A    between atoms: _90  and  _91
REMARK   37  A    between atoms: _90  and  _93
REMARK   38  A    between atoms: _93  and  _94
REMARK   39  A    between atoms: _94  and  _95
REMARK   40  A    between atoms: _98  and  _100
REMARK   41  A    between atoms: _100  and  _101
REMARK   42  A    between atoms: _103  and  _105
REMARK   43  A    between atoms: _105  and  _106
REMARK   44  A    between atoms: _105  and  _108
REMARK   45  A    between atoms: _108  and  _109
REMARK   46  A    between atoms: _112  and  _114
REMARK   47  A    between atoms: _114  and  _115
REMARK   48  A    between atoms: _114  and  _117
REMARK   49  A    between atoms: _117  and  _118
REMARK   50  A    between atoms: _118  and  _119
REMARK   51  A    between atoms: _122  and  _124
REMARK   52  A    between atoms: _124  and  _125
REMARK   53  A    between atoms: _124  and  _127
REMARK   54  A    between atoms: _127  and  _128
REMARK   55  A    between atoms: _128  and  _129
REMARK   56  A    between atoms: _131  and  _133
REMARK   57  A    between atoms: _133  and  _134
REMARK   58  A    between atoms: _133  and  _136
REMARK   59  A    between atoms: _136  and  _137
REMARK   60  A    between atoms: _147  and  _149
REMARK   61  A    between atoms: _149  and  _150
REMARK   62  A    between atoms: _149  and  _152
REMARK   63  A    between atoms: _152  and  _153
REMARK   64  A    between atoms: _158  and  _160
REMARK   65  A    between atoms: _160  and  _161
REMARK   66  A    between atoms: _160  and  _163
REMARK   67  A    between atoms: _163  and  _164
REMARK   68  A    between atoms: _174  and  _176
REMARK   69  A    between atoms: _176  and  _177
REMARK   70  A    between atoms: _176  and  _179
REMARK   71  A    between atoms: _179  and  _180
REMARK   72  A    between atoms: _185  and  _186
REMARK   73  A    between atoms: _188  and  _190
REMARK   74  A    between atoms: _190  and  _191
REMARK   75  A    between atoms: _193  and  _195
REMARK   76  A    between atoms: _195  and  _196
REMARK   77  A    between atoms: _198  and  _200
REMARK   78  A    between atoms: _200  and  _201
REMARK   79  A    between atoms: _203  and  _205
REMARK   80  A    between atoms: _205  and  _206
REMARK   81  A    between atoms: _205  and  _208
REMARK   82  A    between atoms: _208  and  _209
REMARK   83  A    between atoms: _215  and  _217
REMARK   84  A    between atoms: _217  and  _218
REMARK   85  A    between atoms: _217  and  _220
REMARK   86  A    between atoms: _220  and  _221
REMARK   87  A    between atoms: _226  and  _227
REMARK   88  A    between atoms: _229  and  _231
REMARK   89  A    between atoms: _231  and  _232
REMARK   90  A    between atoms: _231  and  _234
REMARK   91  A    between atoms: _234  and  _235
REMARK   92  A    between atoms: _237  and  _239
REMARK   93  A    between atoms: _239  and  _240
REMARK   94  A    between atoms: _242  and  _244
REMARK   95  A    between atoms: _244  and  _245
REMARK   96  A    between atoms: _248  and  _250
REMARK   97  A    between atoms: _250  and  _251
REMARK   98  A    between atoms: _250  and  _253
REMARK   99  A    between atoms: _253  and  _254
REMARK  100  A    between atoms: _257  and  _259
REMARK  101  A    between atoms: _259  and  _260
REMARK  102  A    between atoms: _259  and  _262
REMARK  103  A    between atoms: _265  and  _267
REMARK  104  A    between atoms: _267  and  _268
REMARK  105  A    between atoms: _267  and  _270
REMARK  106  A    between atoms: _270  and  _271
REMARK  107  A    between atoms: _276  and  _277
REMARK  108  A    between atoms: _279  and  _281
REMARK  109  A    between atoms: _281  and  _282
REMARK  110  A    between atoms: _281  and  _284
REMARK  111  A    between atoms: _284  and  _285
REMARK  112  A    between atoms: _290  and  _291
REMARK  113  A    between atoms: _293  and  _295
REMARK  114  A    between atoms: _295  and  _296
REMARK  115  A    between atoms: _295  and  _298
REMARK  116  A    between atoms: _298  and  _299
REMARK  117  A    between atoms: _299  and  _300
REMARK  118  A    between atoms: _303  and  _305
REMARK  119  A    between atoms: _305  and  _306
REMARK  120  A    between atoms: _305  and  _308
REMARK  121  A    between atoms: _308  and  _309
REMARK  122  A    between atoms: _311  and  _313
REMARK  123  A    between atoms: _313  and  _314
REMARK  124  A    between atoms: _317  and  _319
REMARK  125  A    between atoms: _319  and  _320
REMARK  126  A    between atoms: _322  and  _324
REMARK  127  A    between atoms: _324  and  _325
REMARK  128  A    between atoms: _328  and  _330
REMARK  129  A    between atoms: _330  and  _331
REMARK  130  A    between atoms: _330  and  _333
REMARK  131  A    between atoms: _333  and  _334
REMARK  132  A    between atoms: _336  and  _338
REMARK  133  A    between atoms: _338  and  _339
REMARK  134  A    between atoms: _338  and  _341
REMARK  135  A    between atoms: _344  and  _346
REMARK  136  A    between atoms: _346  and  _347
REMARK  137  A    between atoms: _346  and  _349
REMARK  138  A    between atoms: _349  and  _350
REMARK  139  A    between atoms: _353  and  _355
REMARK  140  A    between atoms: _355  and  _356
REMARK  141  A    between atoms: _355  and  _358
REMARK  142  A    between atoms: _358  and  _359
REMARK  143  A    between atoms: _364  and  _366
REMARK  144  A    between atoms: _366  and  _367
REMARK  145  A    between atoms: _366  and  _369
REMARK  146  A    between atoms: _369  and  _370
REMARK  147  A    between atoms: _370  and  _371
REMARK  148  A    between atoms: _374  and  _376
REMARK  149  A    between atoms: _376  and  _377
REMARK  150  A    between atoms: _376  and  _379
REMARK  151  A    between atoms: _379  and  _380
REMARK  152  A    between atoms: _390  and  _392
REMARK  153  A    between atoms: _392  and  _393
REMARK  154  A    between atoms: _392  and  _395
REMARK  155  A    between atoms: _395  and  _396
REMARK  156  A    between atoms: _401  and  _403
REMARK  157  A    between atoms: _403  and  _404
REMARK  158  A    between atoms: _403  and  _406
REMARK  159  A    between atoms: _409  and  _411
REMARK  160  A    between atoms: _411  and  _412
REMARK  161  A    between atoms: _411  and  _414
REMARK  162  A    between atoms: _414  and  _415
REMARK  163  A    between atoms: _419  and  _420
REMARK  164  A    between atoms: _425  and  _427
REMARK  165  A    between atoms: _427  and  _428
REMARK  166  A    between atoms: _427  and  _430
REMARK  167  A    between atoms: _430  and  _431
REMARK  168  A    between atoms: _431  and  _432
REMARK  169  A    between atoms: _437  and  _439
REMARK  170  A    between atoms: _439  and  _440
REMARK  171  A    between atoms: _439  and  _442
REMARK  172  A    between atoms: _442  and  _443
REMARK  173  A    between atoms: _443  and  _444
REMARK  174  A    between atoms: _447  and  _449
REMARK  175  A    between atoms: _449  and  _450
REMARK  176  A    between atoms: _449  and  _452
REMARK  177  A    between atoms: _452  and  _453
REMARK  178  A    between atoms: _455  and  _457
REMARK  179  A    between atoms: _457  and  _458
REMARK  180  A    between atoms: _457  and  _460
REMARK  181  A    between atoms: _460  and  _461
REMARK  182  A    between atoms: _464  and  _466
REMARK  183  A    between atoms: _466  and  _467
REMARK  184  A    between atoms: _466  and  _469
REMARK  185  A    between atoms: _469  and  _470
REMARK  186  A    between atoms: _476  and  _478
REMARK  187  A    between atoms: _478  and  _479
REMARK  188  A    between atoms: _478  and  _481
REMARK  189  A    between atoms: _481  and  _482
REMARK  190  A    between atoms: _482  and  _483
REMARK  191  A    between atoms: _483  and  _484
REMARK  192  A    between atoms: _493  and  _495
REMARK  193  A    between atoms: _495  and  _496
REMARK  194  A    between atoms: _495  and  _498
REMARK  195  A    between atoms: _498  and  _499
REMARK  196  A    between atoms: _505  and  _507
REMARK  197  A    between atoms: _507  and  _508
REMARK  198  A    between atoms: _507  and  _510
REMARK  199  A    between atoms: _510  and  _511
REMARK  200  A    between atoms: _513  and  _515
REMARK  201  A    between atoms: _515  and  _516
REMARK  202  A    between atoms: _515  and  _518
REMARK  203  A    between atoms: _518  and  _519
REMARK  204  A    between atoms: _519  and  _520
REMARK  205  A    between atoms: _523  and  _525
REMARK  206  A    between atoms: _525  and  _526
REMARK  207  A    between atoms: _525  and  _528
REMARK  208  A    between atoms: _528  and  _529
REMARK  209  A    between atoms: _531  and  _533
REMARK  210  A    between atoms: _533  and  _534
REMARK  211  A    between atoms: _533  and  _536
REMARK  212  A    between atoms: _536  and  _537
REMARK  213  A    between atoms: _542  and  _543
REMARK  214  A    between atoms: _545  and  _547
REMARK  215  A    between atoms: _547  and  _548
REMARK  216  A    between atoms: _547  and  _550
REMARK  217  A    between atoms: _550  and  _551
REMARK  218  A    between atoms: _557  and  _559
REMARK  219  A    between atoms: _559  and  _560
REMARK  220  A    between atoms: _559  and  _562
REMARK  221  A    between atoms: _562  and  _563
REMARK  222  A    between atoms: _566  and  _568
REMARK  223  A    between atoms: _568  and  _569
REMARK  224  A    between atoms: _568  and  _571
REMARK  225  A    between atoms: _574  and  _576
REMARK  226  A    between atoms: _576  and  _577
REMARK  227  A    between atoms: _576  and  _579
REMARK  228  A    between atoms: _579  and  _580
REMARK  229  A    between atoms: _585  and  _586
REMARK  230  A    between atoms: _588  and  _590
REMARK  231  A    between atoms: _590  and  _591
REMARK  232  A    between atoms: _593  and  _595
REMARK  233  A    between atoms: _595  and  _596
REMARK  234  A    between atoms: _595  and  _598
REMARK  235  A    between atoms: _601  and  _603
REMARK  236  A    between atoms: _603  and  _604
REMARK  237  A    between atoms: _603  and  _606
REMARK  238  A    between atoms: _606  and  _607
REMARK  239  A    between atoms: _611  and  _612
REMARK  240  A    between atoms: _617  and  _619
REMARK  241  A    between atoms: _619  and  _620
REMARK  242  A    between atoms: _619  and  _622
REMARK  243  A    between atoms: _622  and  _623
REMARK  244  A    between atoms: _626  and  _628
REMARK  245  A    between atoms: _628  and  _629
REMARK  246  A    between atoms: _628  and  _631
REMARK  247  A    between atoms: _631  and  _632
REMARK  248  A    between atoms: _642  and  _644
REMARK  249  A    between atoms: _644  and  _645
REMARK  250  A    between atoms: _644  and  _647
REMARK  251  A    between atoms: _647  and  _648
REMARK  252  A    between atoms: _648  and  _649
REMARK  253  A    between atoms: _652  and  _653
REMARK  254  A    between atoms: _658  and  _660
REMARK  255  A    between atoms: _660  and  _661
REMARK  256  A    between atoms: _660  and  _663
REMARK  257  A    between atoms: _663  and  _664
REMARK  258  A    between atoms: _669  and  _671
REMARK  259  A    between atoms: _671  and  _672
REMARK  260  A    between atoms: _674  and  _676
REMARK  261  A    between atoms: _676  and  _677
REMARK  262  A    between atoms: _676  and  _679
REMARK  263  A    between atoms: _679  and  _680
REMARK  264  A    between atoms: _685  and  _686
REMARK  265  A    between atoms: _688  and  _690
REMARK  266  A    between atoms: _690  and  _691
REMARK  267  A    between atoms: _690  and  _693
REMARK  268  A    between atoms: _693  and  _694
REMARK  269  A    between atoms: _694  and  _695
REMARK  270  A    between atoms: _698  and  _700
REMARK  271  A    between atoms: _700  and  _701
REMARK  272  A    between atoms: _700  and  _703
REMARK  273  A    between atoms: _703  and  _704
REMARK                            x       y       z     vdW  Elec       q    Type
REMARK                         _______ _______ _______ _____ _____    ______ ____
ROOT
ATOM      1  CA  MET A   1      18.561  25.303   5.280  0.00  0.00    +0.134 C 
ENDROOT
BRANCH   1   2
ATOM      2  N   MET A   1      17.811  26.431   4.732  0.00  0.00    -0.239 NA
ATOM      3  H   MET A   1      17.749  27.310   5.285  0.00  0.00    +0.142 HD
ENDBRANCH   1   2
BRANCH   1   4
ATOM      4  C   MET A   1      17.655  24.229   5.841  0.00  0.00    +0.224 C 
ATOM      5  O   MET A   1      18.108  23.138   6.149  0.00  0.00    -0.287 OA
ENDBRANCH   1   4
BRANCH   1   6
ATOM      6  CB  MET A   1      19.528  25.768   6.361  0.00  0.00    +0.037 C 
BRANCH   6   7
ATOM      7  CG  MET A   1      20.700  26.574   5.820  0.00  0.00    +0.059 C 
BRANCH   7   8
ATOM      8  SD  MET A   1      21.883  26.812   7.127  0.00  0.00    -0.139 S 
ATOM      9  CE  MET A   1      23.003  27.751   6.311  0.00  0.00    +0.069 C 
ENDBRANCH   7   8
ENDBRANCH   6   7
ENDBRANCH   1   6
TORSDOF 5
REMARK  Name = ../refined-set-2016/1q84/1q84_pocket.pdb
REMARK  273 active torsions:
REMARK  status: ('A' for Active; 'I' for Inactive)
REMARK    1  A    between atoms: _1  and  _3
REMARK    2  A    between atoms: _3  and  _4
REMARK    3  A    between atoms: _3  and  _6
REMARK    4  A    between atoms: _6  and  _7
REMARK    5  A    between atoms: _7  and  _8
REMARK    6  A    between atoms: _13  and  _15
REMARK    7  A    between atoms: _15  and  _16
REMARK    8  A    between atoms: _15  and  _18
REMARK    9  A    between atoms: _18  and  _19
REMARK   10  A    between atoms: _24  and  _25
REMARK   11  A    between atoms: _27  and  _29
REMARK   12  A    between atoms: _29  and  _30
REMARK   13  A    between atoms: _29  and  _32
REMARK   14  A    between atoms: _35  and  _37
REMARK   15  A    between atoms: _37  and  _38
REMARK   16  A    between atoms: _37  and  _40
REMARK   17  A    between atoms: _40  and  _41
REMARK   18  A    between atoms: _44  and  _46
REMARK   19  A    between atoms: _46  and  _47
REMARK   20  A    between atoms: _46  and  _49
REMARK   21  A    between atoms: _49  and  _50
REMARK   22  A    between atoms: _53  and  _55
REMARK   23  A    between atoms: _55  and  _56
REMARK   24  A    between atoms: _55  and  _58
REMARK   25  A    between atoms: _58  and  _59
REMARK   26  A    between atoms: _62  and  _64
REMARK   27  A    between atoms: _64  and  _65
REMARK   28  A    between atoms: _64  and  _67
REMARK   29  A    between atoms: _67  and  _68
REMARK   30  A    between atoms: _73  and  _74
REMARK   31  A    between atoms: _76  and  _78
REMARK   32  A    between atoms: _78  and  _79
REMARK   33  A    between atoms: _78  and  _81
REMARK   34  A    between atoms: _81  and  _82
REMARK   35  A    between atoms: _88  and  _90
REMARK   36  A    between atoms: _90  and  _91
REMARK   37  A    between atoms: _90  and  _93
REMARK   38  A    between atoms: _93  and  _94
REMARK   39  A    between atoms: _94  and  _95
REMARK   40  A    between atoms: _98  and  _100
REMARK   41  A    between atoms: _100  and  _101
REMARK   42  A    between atoms: _103  and  _105
REMARK   43  A    between atoms: _105  and  _106
REMARK   44  A    between atoms: _105  and  _108
REMARK   45  A    between atoms: _108  and  _109
REMARK   46  A    between atoms: _112  and  _114
REMARK   47  A    between atoms: _114  and  _115
REMARK   48  A    between atoms: _114  and  _117
REMARK   49  A    between atoms: _117  and  _118
REMARK   50  A    between atoms: _118  and  _119
REMARK   51  A    between atoms: _122  and  _124
REMARK   52  A    between atoms: _124  and  _125
REMARK   53  A    between atoms: _124  and  _127
REMARK   54  A    between atoms: _127  and  _128
REMARK   55  A    between atoms: _128  and  _129
REMARK   56  A    between atoms: _131  and  _133
REMARK   57  A    between atoms: _133  and  _134
REMARK   58  A    between atoms: _133  and  _136
REMARK   59  A    between atoms: _136  and  _137
REMARK   60  A    between atoms: _147  and  _149
REMARK   61  A    between atoms: _149  and  _150
REMARK   62  A    between atoms: _149  and  _152
REMARK   63  A    between atoms: _152  and  _153
REMARK   64  A    between atoms: _158  and  _160
REMARK   65  A    between atoms: _160  and  _161
REMARK   66  A    between atoms: _160  and  _163
REMARK   67  A    between atoms: _163  and  _164
REMARK   68  A    between atoms: _174  and  _176
REMARK   69  A    between atoms: _176  and  _177
REMARK   70  A    between atoms: _176  and  _179
REMARK   71  A    between atoms: _179  and  _180
REMARK   72  A    between atoms: _185  and  _186
REMARK   73  A    between atoms: _188  and  _190
REMARK   74  A    between atoms: _190  and  _191
REMARK   75  A    between atoms: _193  and  _195
REMARK   76  A    between atoms: _195  and  _196
REMARK   77  A    between atoms: _198  and  _200
REMARK   78  A    between atoms: _200  and  _201
REMARK   79  A    between atoms: _203  and  _205
REMARK   80  A    between atoms: _205  and  _206
REMARK   81  A    between atoms: _205  and  _208
REMARK   82  A    between atoms: _208  and  _209
REMARK   83  A    between atoms: _215  and  _217
REMARK   84  A    between atoms: _217  and  _218
REMARK   85  A    between atoms: _217  and  _220
REMARK   86  A    between atoms: _220  and  _221
REMARK   87  A    between atoms: _226  and  _227
REMARK   88  A    between atoms: _229  and  _231
REMARK   89  A    between atoms: _231  and  _232
REMARK   90  A    between atoms: _231  and  _234
REMARK   91  A    between atoms: _234  and  _235
REMARK   92  A    between atoms: _237  and  _239
REMARK   93  A    between atoms: _239  and  _240
REMARK   94  A    between atoms: _242  and  _244
REMARK   95  A    between atoms: _244  and  _245
REMARK   96  A    between atoms: _248  and  _250
REMARK   97  A    between atoms: _250  and  _251
REMARK   98  A    between atoms: _250  and  _253
REMARK   99  A    between atoms: _253  and  _254
REMARK  100  A    between atoms: _257  and  _259
REMARK  101  A    between atoms: _259  and  _260
REMARK  102  A    between atoms: _259  and  _262
REMARK  103  A    between atoms: _265  and  _267
REMARK  104  A    between atoms: _267  and  _268
REMARK  105  A    between atoms: _267  and  _270
REMARK  106  A    between atoms: _270  and  _271
REMARK  107  A    between atoms: _276  and  _277
REMARK  108  A    between atoms: _279  and  _281
REMARK  109  A    between atoms: _281  and  _282
REMARK  110  A    between atoms: _281  and  _284
REMARK  111  A    between atoms: _284  and  _285
REMARK  112  A    between atoms: _290  and  _291
REMARK  113  A    between atoms: _293  and  _295
REMARK  114  A    between atoms: _295  and  _296
REMARK  115  A    between atoms: _295  and  _298
REMARK  116  A    between atoms: _298  and  _299
REMARK  117  A    between atoms: _299  and  _300
REMARK  118  A    between atoms: _303  and  _305
REMARK  119  A    between atoms: _305  and  _306
REMARK  120  A    between atoms: _305  and  _308
REMARK  121  A    between atoms: _308  and  _309
REMARK  122  A    between atoms: _311  and  _313
REMARK  123  A    between atoms: _313  and  _314
REMARK  124  A    between atoms: _317  and  _319
REMARK  125  A    between atoms: _319  and  _320
REMARK  126  A    between atoms: _322  and  _324
REMARK  127  A    between atoms: _324  and  _325
REMARK  128  A    between atoms: _328  and  _330
REMARK  129  A    between atoms: _330  and  _331
REMARK  130  A    between atoms: _330  and  _333
REMARK  131  A    between atoms: _333  and  _334
REMARK  132  A    between atoms: _336  and  _338
REMARK  133  A    between atoms: _338  and  _339
REMARK  134  A    between atoms: _338  and  _341
REMARK  135  A    between atoms: _344  and  _346
REMARK  136  A    between atoms: _346  and  _347
REMARK  137  A    between atoms: _346  and  _349
REMARK  138  A    between atoms: _349  and  _350
REMARK  139  A    between atoms: _353  and  _355
REMARK  140  A    between atoms: _355  and  _356
REMARK  141  A    between atoms: _355  and  _358
REMARK  142  A    between atoms: _358  and  _359
REMARK  143  A    between atoms: _364  and  _366
REMARK  144  A    between atoms: _366  and  _367
REMARK  145  A    between atoms: _366  and  _369
REMARK  146  A    between atoms: _369  and  _370
REMARK  147  A    between atoms: _370  and  _371
REMARK  148  A    between atoms: _374  and  _376
REMARK  149  A    between atoms: _376  and  _377
REMARK  150  A    between atoms: _376  and  _379
REMARK  151  A    between atoms: _379  and  _380
REMARK  152  A    between atoms: _390  and  _392
REMARK  153  A    between atoms: _392  and  _393
REMARK  154  A    between atoms: _392  and  _395
REMARK  155  A    between atoms: _395  and  _396
REMARK  156  A    between atoms: _401  and  _403
REMARK  157  A    between atoms: _403  and  _404
REMARK  158  A    between atoms: _403  and  _406
REMARK  159  A    between atoms: _409  and  _411
REMARK  160  A    between atoms: _411  and  _412
REMARK  161  A    between atoms: _411  and  _414
REMARK  162  A    between atoms: _414  and  _415
REMARK  163  A    between atoms: _419  and  _420
REMARK  164  A    between atoms: _425  and  _427
REMARK  165  A    between atoms: _427  and  _428
REMARK  166  A    between atoms: _427  and  _430
REMARK  167  A    between atoms: _430  and  _431
REMARK  168  A    between atoms: _431  and  _432
REMARK  169  A    between atoms: _437  and  _439
REMARK  170  A    between atoms: _439  and  _440
REMARK  171  A    between atoms: _439  and  _442
REMARK  172  A    between atoms: _442  and  _443
REMARK  173  A    between atoms: _443  and  _444
REMARK  174  A    between atoms: _447  and  _449
REMARK  175  A    between atoms: _449  and  _450
REMARK  176  A    between atoms: _449  and  _452
REMARK  177  A    between atoms: _452  and  _453
REMARK  178  A    between atoms: _455  and  _457
REMARK  179  A    between atoms: _457  and  _458
REMARK  180  A    between atoms: _457  and  _460
REMARK  181  A    between atoms: _460  and  _461
REMARK  182  A    between atoms: _464  and  _466
REMARK  183  A    between atoms: _466  and  _467
REMARK  184  A    between atoms: _466  and  _469
REMARK  185  A    between atoms: _469  and  _470
REMARK  186  A    between atoms: _476  and  _478
REMARK  187  A    between atoms: _478  and  _479
REMARK  188  A    between atoms: _478  and  _481
REMARK  189  A    between atoms: _481  and  _482
REMARK  190  A    between atoms: _482  and  _483
REMARK  191  A    between atoms: _483  and  _484
REMARK  192  A    between atoms: _493  and  _495
REMARK  193  A    between atoms: _495  and  _496
REMARK  194  A    between atoms: _495  and  _498
REMARK  195  A    between atoms: _498  and  _499
REMARK  196  A    between atoms: _505  and  _507
REMARK  197  A    between atoms: _507  and  _508
REMARK  198  A    between atoms: _507  and  _510
REMARK  199  A    between atoms: _510  and  _511
REMARK  200  A    between atoms: _513  and  _515
REMARK  201  A    between atoms: _515  and  _516
REMARK  202  A    between atoms: _515  and  _518
REMARK  203  A    between atoms: _518  and  _519
REMARK  204  A    between atoms: _519  and  _520
REMARK  205  A    between atoms: _523  and  _525
REMARK  206  A    between atoms: _525  and  _526
REMARK  207  A    between atoms: _525  and  _528
REMARK  208  A    between atoms: _528  and  _529
REMARK  209  A    between atoms: _531  and  _533
REMARK  210  A    between atoms: _533  and  _534
REMARK  211  A    between atoms: _533  and  _536
REMARK  212  A    between atoms: _536  and  _537
REMARK  213  A    between atoms: _542  and  _543
REMARK  214  A    between atoms: _545  and  _547
REMARK  215  A    between atoms: _547  and  _548
REMARK  216  A    between atoms: _547  and  _550
REMARK  217  A    between atoms: _550  and  _551
REMARK  218  A    between atoms: _557  and  _559
REMARK  219  A    between atoms: _559  and  _560
REMARK  220  A    between atoms: _559  and  _562
REMARK  221  A    between atoms: _562  and  _563
REMARK  222  A    between atoms: _566  and  _568
REMARK  223  A    between atoms: _568  and  _569
REMARK  224  A    between atoms: _568  and  _571
REMARK  225  A    between atoms: _574  and  _576
REMARK  226  A    between atoms: _576  and  _577
REMARK  227  A    between atoms: _576  and  _579
REMARK  228  A    between atoms: _579  and  _580
REMARK  229  A    between atoms: _585  and  _586
REMARK  230  A    between atoms: _588  and  _590
REMARK  231  A    between atoms: _590  and  _591
REMARK  232  A    between atoms: _593  and  _595
REMARK  233  A    between atoms: _595  and  _596
REMARK  234  A    between atoms: _595  and  _598
REMARK  235  A    between atoms: _601  and  _603
REMARK  236  A    between atoms: _603  and  _604
REMARK  237  A    between atoms: _603  and  _606
REMARK  238  A    between atoms: _606  and  _607
REMARK  239  A    between atoms: _611  and  _612
REMARK  240  A    between atoms: _617  and  _619
REMARK  241  A    between atoms: _619  and  _620
REMARK  242  A    between atoms: _619  and  _622
REMARK  243  A    between atoms: _622  and  _623
REMARK  244  A    between atoms: _626  and  _628
REMARK  245  A    between atoms: _628  and  _629
REMARK  246  A    between atoms: _628  and  _631
REMARK  247  A    between atoms: _631  and  _632
REMARK  248  A    between atoms: _642  and  _644
REMARK  249  A    between atoms: _644  and  _645
REMARK  250  A    between atoms: _644  and  _647
REMARK  251  A    between atoms: _647  and  _648
REMARK  252  A    between atoms: _648  and  _649
REMARK  253  A    between atoms: _652  and  _653
REMARK  254  A    between atoms: _658  and  _660
REMARK  255  A    between atoms: _660  and  _661
REMARK  256  A    between atoms: _660  and  _663
REMARK  257  A    between atoms: _663  and  _664
REMARK  258  A    between atoms: _669  and  _671
REMARK  259  A    between atoms: _671  and  _672
REMARK  260  A    between atoms: _674  and  _676
REMARK  261  A    between atoms: _676  and  _677
REMARK  262  A    between atoms: _676  and  _679
REMARK  263  A    between atoms: _679  and  _680
REMARK  264  A    between atoms: _685  and  _686
REMARK  265  A    between atoms: _688  and  _690
REMARK  266  A    between atoms: _690  and  _691
REMARK  267  A    between atoms: _690  and  _693
REMARK  268  A    between atoms: _693  and  _694
REMARK  269  A    between atoms: _694  and  _695
REMARK  270  A    between atoms: _698  and  _700
REMARK  271  A    between atoms: _700  and  _701
REMARK  272  A    between atoms: _700  and  _703
REMARK  273  A    between atoms: _703  and  _704
REMARK                            x       y       z     vdW  Elec       q    Type
REMARK                         _______ _______ _______ _____ _____    ______ ____
ROOT
ATOM      1  CA  TYR A   4      18.838  20.103  14.971  0.00  0.00    +0.153 C 
ENDROOT
BRANCH   1   2
ATOM      2  C   TYR A   4      17.672  19.226  15.411  0.00  0.00    +0.241 C 
ATOM      3  O   TYR A   4      16.661  19.719  15.814  0.00  0.00    -0.273 OA
ATOM      4  N   GLU A   5      17.877  17.909  15.431  0.00  0.00    -0.297 N 
ATOM      5  H   GLU A   5      18.700  17.515  14.932  0.00  0.00    +0.150 HD
BRANCH   4   6
ATOM      6  CA  GLU A   5      16.972  17.009  16.137  0.00  0.00    +0.149 C 
BRANCH   6   7
ATOM      7  C   GLU A   5      17.416  16.807  17.575  0.00  0.00    +0.241 C 
ATOM      8  O   GLU A   5      16.618  16.428  18.429  0.00  0.00    -0.273 OA
ATOM      9  N   ILE A   6      18.693  17.059  17.849  0.00  0.00    -0.298 N 
ATOM     10  H   ILE A   6      19.287  17.552  17.153  0.00  0.00    +0.150 HD
BRANCH   9  11
ATOM     11  CA  ILE A   6      19.265  16.638  19.142  0.00  0.00    +0.137 C 
BRANCH  11  12
ATOM     12  C   ILE A   6      18.577  17.306  20.349  0.00  0.00    +0.227 C 
ATOM     13  O   ILE A   6      18.249  16.649  21.345  0.00  0.00    -0.286 OA
ENDBRANCH  11  12
BRANCH  11  14
ATOM     14  CB  ILE A   6      20.775  16.931  19.210  0.00  0.00    +0.026 C 
ATOM     15  CG2 ILE A   6      21.303  16.529  20.579  0.00  0.00    +0.002 C 
BRANCH  14  16
ATOM     16  CG1 ILE A   6      21.539  16.198  18.107  0.00  0.00    +0.002 C 
ATOM     17  CD1 ILE A   6      22.978  16.756  17.917  0.00  0.00    +0.000 C 
ENDBRANCH  14  16
ENDBRANCH  11  14
ENDBRANCH   9  11
ENDBRANCH   6   7
BRANCH   6  18
ATOM     18  CB  GLU A   5      16.868  15.667  15.439  0.00  0.00    +0.041 C 
BRANCH  18  19
ATOM     19  CG  GLU A   5      17.932  14.667  15.847  0.00  0.00    +0.116 C 
BRANCH  19  20
ATOM     20  CD  GLU A   5      19.302  14.853  15.180  0.00  0.00    +0.365 C 
ATOM     21  OE2 GLU A   5      20.009  13.831  15.077  0.00  0.00    -0.246 OA
ATOM     22  OE1 GLU A   5      19.680  15.976  14.780  0.00  0.00    -0.246 OA
ENDBRANCH  19  20
ENDBRANCH  18  19
ENDBRANCH   6  18
ENDBRANCH   4   6
ENDBRANCH   1   2
BRANCH   1  25
ATOM     23  C   GLY A   3      20.975  18.947  15.093  0.00  0.00    +0.243 C 
ATOM     24  O   GLY A   3      20.923  18.946  16.318  0.00  0.00    -0.273 OA
ATOM     25  N   TYR A   4      19.967  19.387  14.348  0.00  0.00    -0.297 N 
ATOM     26  H   TYR A   4      19.974  19.226  13.321  0.00  0.00    +0.150 HD
BRANCH  23  27
ATOM     27  CA  GLY A   3      22.235  18.434  14.395  0.00  0.00    +0.176 C 
BRANCH  27  29
ATOM     28  C   HIS A   2      22.564  18.910  12.010  0.00  0.00    +0.241 C 
ATOM     29  N   GLY A   3      22.080  18.142  12.982  0.00  0.00    -0.295 N 
ATOM     30  H   GLY A   3      21.560  17.282  12.714  0.00  0.00    +0.150 HD
ATOM     31  O   HIS A   2      23.140  19.971  12.227  0.00  0.00    -0.273 OA
BRANCH  28  32
ATOM     32  CA  HIS A   2      22.315  18.418  10.562  0.00  0.00    +0.155 C 
BRANCH  32  35
ATOM     33  C   PRO A   1      20.414  19.994  10.248  0.00  0.00    +0.239 C 
ATOM     34  O   PRO A   1      19.827  19.652  11.262  0.00  0.00    -0.274 OA
ATOM     35  N   HIS A   2      21.522  19.431   9.826  0.00  0.00    -0.297 N 
ATOM     36  H   HIS A   2      21.875  19.722   8.892  0.00  0.00    +0.150 HD
BRANCH  33  41
ATOM     37  N   PRO A   1      18.510  21.461   9.529  0.00  0.00    -0.210 NA
ATOM     38  CD  PRO A   1      18.345  22.745  10.211  0.00  0.00    +0.089 C 
ATOM     39  CG  PRO A   1      19.601  23.412   9.779  0.00  0.00    +0.021 C 
ATOM     40  CB  PRO A   1      20.644  22.398   9.670  0.00  0.00    +0.028 C 
ATOM     41  CA  PRO A   1      19.921  21.110   9.344  0.00  0.00    +0.149 C 
ENDBRANCH  33  41
ENDBRANCH  32  35
BRANCH  32  42
ATOM     42  CB  HIS A   2      23.631  18.266   9.761  0.00  0.00    +0.076 C 
BRANCH  42  43
ATOM     43  CG  HIS A   2      24.553  17.191  10.216  0.00  0.00    +0.082 A 
ATOM     44  CD2 HIS A   2      25.833  17.254  10.658  0.00  0.00    +0.115 A 
ATOM     45  NE2 HIS A   2      26.262  15.965  10.845  0.00  0.00    -0.221 NA
ATOM     46  CE1 HIS A   2      25.281  15.139  10.521  0.00  0.00    +0.199 A 
ATOM     47  ND1 HIS A   2      24.255  15.851  10.091  0.00  0.00    -0.227 NA
ENDBRANCH  42  43
ENDBRANCH  32  42
ENDBRANCH  28  32
ENDBRANCH  27  29
ENDBRANCH  23  27
ENDBRANCH   1  25
BRANCH   1  48
ATOM     48  CB  TYR A   4      18.426  21.306  14.132  0.00  0.00    +0.055 C 
BRANCH  48  49
ATOM     49  CG  TYR A   4      19.468  22.374  14.317  0.00  0.00    -0.020 A 
ATOM     50  CD2 TYR A   4      19.464  23.189  15.458  0.00  0.00    -0.001 A 
ATOM     51  CE2 TYR A   4      20.437  24.128  15.666  0.00  0.00    +0.036 A 
ATOM     52  CZ  TYR A   4      21.455  24.266  14.766  0.00  0.00    +0.134 A 
ATOM     53  CE1 TYR A   4      21.523  23.479  13.656  0.00  0.00    +0.036 A 
ATOM     54  CD1 TYR A   4      20.527  22.502  13.443  0.00  0.00    -0.001 A 
BRANCH  52  55
ATOM     55  OH  TYR A   4      22.405  25.198  15.006  0.00  0.00    -0.506 OA
ATOM     56  HH  TYR A   4      22.852  24.998  15.866  0.00  0.00    +0.292 HD
ENDBRANCH  52  55
ENDBRANCH  48  49
ENDBRANCH   1  48
TORSDOF 21
REMARK  Name = ../refined-set-2016/1q84/1q84_pocket.pdb
REMARK  273 active torsions:
REMARK  status: ('A' for Active; 'I' for Inactive)
REMARK    1  A    between atoms: _1  and  _3
REMARK    2  A    between atoms: _3  and  _4
REMARK    3  A    between atoms: _3  and  _6
REMARK    4  A    between atoms: _6  and  _7
REMARK    5  A    between atoms: _7  and  _8
REMARK    6  A    between atoms: _13  and  _15
REMARK    7  A    between atoms: _15  and  _16
REMARK    8  A    between atoms: _15  and  _18
REMARK    9  A    between atoms: _18  and  _19
REMARK   10  A    between atoms: _24  and  _25
REMARK   11  A    between atoms: _27  and  _29
REMARK   12  A    between atoms: _29  and  _30
REMARK   13  A    between atoms: _29  and  _32
REMARK   14  A    between atoms: _35  and  _37
REMARK   15  A    between atoms: _37  and  _38
REMARK   16  A    between atoms: _37  and  _40
REMARK   17  A    between atoms: _40  and  _41
REMARK   18  A    between atoms: _44  and  _46
REMARK   19  A    between atoms: _46  and  _47
REMARK   20  A    between atoms: _46  and  _49
REMARK   21  A    between atoms: _49  and  _50
REMARK   22  A    between atoms: _53  and  _55
REMARK   23  A    between atoms: _55  and  _56
REMARK   24  A    between atoms: _55  and  _58
REMARK   25  A    between atoms: _58  and  _59
REMARK   26  A    between atoms: _62  and  _64
REMARK   27  A    between atoms: _64  and  _65
REMARK   28  A    between atoms: _64  and  _67
REMARK   29  A    between atoms: _67  and  _68
REMARK   30  A    between atoms: _73  and  _74
REMARK   31  A    between atoms: _76  and  _78
REMARK   32  A    between atoms: _78  and  _79
REMARK   33  A    between atoms: _78  and  _81
REMARK   34  A    between atoms: _81  and  _82
REMARK   35  A    between atoms: _88  and  _90
REMARK   36  A    between atoms: _90  and  _91
REMARK   37  A    between atoms: _90  and  _93
REMARK   38  A    between atoms: _93  and  _94
REMARK   39  A    between atoms: _94  and  _95
REMARK   40  A    between atoms: _98  and  _100
REMARK   41  A    between atoms: _100  and  _101
REMARK   42  A    between atoms: _103  and  _105
REMARK   43  A    between atoms: _105  and  _106
REMARK   44  A    between atoms: _105  and  _108
REMARK   45  A    between atoms: _108  and  _109
REMARK   46  A    between atoms: _112  and  _114
REMARK   47  A    between atoms: _114  and  _115
REMARK   48  A    between atoms: _114  and  _117
REMARK   49  A    between atoms: _117  and  _118
REMARK   50  A    between atoms: _118  and  _119
REMARK   51  A    between atoms: _122  and  _124
REMARK   52  A    between atoms: _124  and  _125
REMARK   53  A    between atoms: _124  and  _127
REMARK   54  A    between atoms: _127  and  _128
REMARK   55  A    between atoms: _128  and  _129
REMARK   56  A    between atoms: _131  and  _133
REMARK   57  A    between atoms: _133  and  _134
REMARK   58  A    between atoms: _133  and  _136
REMARK   59  A    between atoms: _136  and  _137
REMARK   60  A    between atoms: _147  and  _149
REMARK   61  A    between atoms: _149  and  _150
REMARK   62  A    between atoms: _149  and  _152
REMARK   63  A    between atoms: _152  and  _153
REMARK   64  A    between atoms: _158  and  _160
REMARK   65  A    between atoms: _160  and  _161
REMARK   66  A    between atoms: _160  and  _163
REMARK   67  A    between atoms: _163  and  _164
REMARK   68  A    between atoms: _174  and  _176
REMARK   69  A    between atoms: _176  and  _177
REMARK   70  A    between atoms: _176  and  _179
REMARK   71  A    between atoms: _179  and  _180
REMARK   72  A    between atoms: _185  and  _186
REMARK   73  A    between atoms: _188  and  _190
REMARK   74  A    between atoms: _190  and  _191
REMARK   75  A    between atoms: _193  and  _195
REMARK   76  A    between atoms: _195  and  _196
REMARK   77  A    between atoms: _198  and  _200
REMARK   78  A    between atoms: _200  and  _201
REMARK   79  A    between atoms: _203  and  _205
REMARK   80  A    between atoms: _205  and  _206
REMARK   81  A    between atoms: _205  and  _208
REMARK   82  A    between atoms: _208  and  _209
REMARK   83  A    between atoms: _215  and  _217
REMARK   84  A    between atoms: _217  and  _218
REMARK   85  A    between atoms: _217  and  _220
REMARK   86  A    between atoms: _220  and  _221
REMARK   87  A    between atoms: _226  and  _227
REMARK   88  A    between atoms: _229  and  _231
REMARK   89  A    between atoms: _231  and  _232
REMARK   90  A    between atoms: _231  and  _234
REMARK   91  A    between atoms: _234  and  _235
REMARK   92  A    between atoms: _237  and  _239
REMARK   93  A    between atoms: _239  and  _240
REMARK   94  A    between atoms: _242  and  _244
REMARK   95  A    between atoms: _244  and  _245
REMARK   96  A    between atoms: _248  and  _250
REMARK   97  A    between atoms: _250  and  _251
REMARK   98  A    between atoms: _250  and  _253
REMARK   99  A    between atoms: _253  and  _254
REMARK  100  A    between atoms: _257  and  _259
REMARK  101  A    between atoms: _259  and  _260
REMARK  102  A    between atoms: _259  and  _262
REMARK  103  A    between atoms: _265  and  _267
REMARK  104  A    between atoms: _267  and  _268
REMARK  105  A    between atoms: _267  and  _270
REMARK  106  A    between atoms: _270  and  _271
REMARK  107  A    between atoms: _276  and  _277
REMARK  108  A    between atoms: _279  and  _281
REMARK  109  A    between atoms: _281  and  _282
REMARK  110  A    between atoms: _281  and  _284
REMARK  111  A    between atoms: _284  and  _285
REMARK  112  A    between atoms: _290  and  _291
REMARK  113  A    between atoms: _293  and  _295
REMARK  114  A    between atoms: _295  and  _296
REMARK  115  A    between atoms: _295  and  _298
REMARK  116  A    between atoms: _298  and  _299
REMARK  117  A    between atoms: _299  and  _300
REMARK  118  A    between atoms: _303  and  _305
REMARK  119  A    between atoms: _305  and  _306
REMARK  120  A    between atoms: _305  and  _308
REMARK  121  A    between atoms: _308  and  _309
REMARK  122  A    between atoms: _311  and  _313
REMARK  123  A    between atoms: _313  and  _314
REMARK  124  A    between atoms: _317  and  _319
REMARK  125  A    between atoms: _319  and  _320
REMARK  126  A    between atoms: _322  and  _324
REMARK  127  A    between atoms: _324  and  _325
REMARK  128  A    between atoms: _328  and  _330
REMARK  129  A    between atoms: _330  and  _331
REMARK  130  A    between atoms: _330  and  _333
REMARK  131  A    between atoms: _333  and  _334
REMARK  132  A    between atoms: _336  and  _338
REMARK  133  A    between atoms: _338  and  _339
REMARK  134  A    between atoms: _338  and  _341
REMARK  135  A    between atoms: _344  and  _346
REMARK  136  A    between atoms: _346  and  _347
REMARK  137  A    between atoms: _346  and  _349
REMARK  138  A    between atoms: _349  and  _350
REMARK  139  A    between atoms: _353  and  _355
REMARK  140  A    between atoms: _355  and  _356
REMARK  141  A    between atoms: _355  and  _358
REMARK  142  A    between atoms: _358  and  _359
REMARK  143  A    between atoms: _364  and  _366
REMARK  144  A    between atoms: _366  and  _367
REMARK  145  A    between atoms: _366  and  _369
REMARK  146  A    between atoms: _369  and  _370
REMARK  147  A    between atoms: _370  and  _371
REMARK  148  A    between atoms: _374  and  _376
REMARK  149  A    between atoms: _376  and  _377
REMARK  150  A    between atoms: _376  and  _379
REMARK  151  A    between atoms: _379  and  _380
REMARK  152  A    between atoms: _390  and  _392
REMARK  153  A    between atoms: _392  and  _393
REMARK  154  A    between atoms: _392  and  _395
REMARK  155  A    between atoms: _395  and  _396
REMARK  156  A    between atoms: _401  and  _403
REMARK  157  A    between atoms: _403  and  _404
REMARK  158  A    between atoms: _403  and  _406
REMARK  159  A    between atoms: _409  and  _411
REMARK  160  A    between atoms: _411  and  _412
REMARK  161  A    between atoms: _411  and  _414
REMARK  162  A    between atoms: _414  and  _415
REMARK  163  A    between atoms: _419  and  _420
REMARK  164  A    between atoms: _425  and  _427
REMARK  165  A    between atoms: _427  and  _428
REMARK  166  A    between atoms: _427  and  _430
REMARK  167  A    between atoms: _430  and  _431
REMARK  168  A    between atoms: _431  and  _432
REMARK  169  A    between atoms: _437  and  _439
REMARK  170  A    between atoms: _439  and  _440
REMARK  171  A    between atoms: _439  and  _442
REMARK  172  A    between atoms: _442  and  _443
REMARK  173  A    between atoms: _443  and  _444
REMARK  174  A    between atoms: _447  and  _449
REMARK  175  A    between atoms: _449  and  _450
REMARK  176  A    between atoms: _449  and  _452
REMARK  177  A    between atoms: _452  and  _453
REMARK  178  A    between atoms: _455  and  _457
REMARK  179  A    between atoms: _457  and  _458
REMARK  180  A    between atoms: _457  and  _460
REMARK  181  A    between atoms: _460  and  _461
REMARK  182  A    between atoms: _464  and  _466
REMARK  183  A    between atoms: _466  and  _467
REMARK  184  A    between atoms: _466  and  _469
REMARK  185  A    between atoms: _469  and  _470
REMARK  186  A    between atoms: _476  and  _478
REMARK  187  A    between atoms: _478  and  _479
REMARK  188  A    between atoms: _478  and  _481
REMARK  189  A    between atoms: _481  and  _482
REMARK  190  A    between atoms: _482  and  _483
REMARK  191  A    between atoms: _483  and  _484
REMARK  192  A    between atoms: _493  and  _495
REMARK  193  A    between atoms: _495  and  _496
REMARK  194  A    between atoms: _495  and  _498
REMARK  195  A    between atoms: _498  and  _499
REMARK  196  A    between atoms: _505  and  _507
REMARK  197  A    between atoms: _507  and  _508
REMARK  198  A    between atoms: _507  and  _510
REMARK  199  A    between atoms: _510  and  _511
REMARK  200  A    between atoms: _513  and  _515
REMARK  201  A    between atoms: _515  and  _516
REMARK  202  A    between atoms: _515  and  _518
REMARK  203  A    between atoms: _518  and  _519
REMARK  204  A    between atoms: _519  and  _520
REMARK  205  A    between atoms: _523  and  _525
REMARK  206  A    between atoms: _525  and  _526
REMARK  207  A    between atoms: _525  and  _528
REMARK  208  A    between atoms: _528  and  _529
REMARK  209  A    between atoms: _531  and  _533
REMARK  210  A    between atoms: _533  and  _534
REMARK  211  A    between atoms: _533  and  _536
REMARK  212  A    between atoms: _536  and  _537
REMARK  213  A    between atoms: _542  and  _543
REMARK  214  A    between atoms: _545  and  _547
REMARK  215  A    between atoms: _547  and  _548
REMARK  216  A    between atoms: _547  and  _550
REMARK  217  A    between atoms: _550  and  _551
REMARK  218  A    between atoms: _557  and  _559
REMARK  219  A    between atoms: _559  and  _560
REMARK  220  A    between atoms: _559  and  _562
REMARK  221  A    between atoms: _562  and  _563
REMARK  222  A    between atoms: _566  and  _568
REMARK  223  A    between atoms: _568  and  _569
REMARK  224  A    between atoms: _568  and  _571
REMARK  225  A    between atoms: _574  and  _576
REMARK  226  A    between atoms: _576  and  _577
REMARK  227  A    between atoms: _576  and  _579
REMARK  228  A    between atoms: _579  and  _580
REMARK  229  A    between atoms: _585  and  _586
REMARK  230  A    between atoms: _588  and  _590
REMARK  231  A    between atoms: _590  and  _591
REMARK  232  A    between atoms: _593  and  _595
REMARK  233  A    between atoms: _595  and  _596
REMARK  234  A    between atoms: _595  and  _598
REMARK  235  A    between atoms: _601  and  _603
REMARK  236  A    between atoms: _603  and  _604
REMARK  237  A    between atoms: _603  and  _606
REMARK  238  A    between atoms: _606  and  _607
REMARK  239  A    between atoms: _611  and  _612
REMARK  240  A    between atoms: _617  and  _619
REMARK  241  A    between atoms: _619  and  _620
REMARK  242  A    between atoms: _619  and  _622
REMARK  243  A    between atoms: _622  and  _623
REMARK  244  A    between atoms: _626  and  _628
REMARK  245  A    between atoms: _628  and  _629
REMARK  246  A    between atoms: _628  and  _631
REMARK  247  A    between atoms: _631  and  _632
REMARK  248  A    between atoms: _642  and  _644
REMARK  249  A    between atoms: _644  and  _645
REMARK  250  A    between atoms: _644  and  _647
REMARK  251  A    between atoms: _647  and  _648
REMARK  252  A    between atoms: _648  and  _649
REMARK  253  A    between atoms: _652  and  _653
REMARK  254  A    between atoms: _658  and  _660
REMARK  255  A    between atoms: _660  and  _661
REMARK  256  A    between atoms: _660  and  _663
REMARK  257  A    between atoms: _663  and  _664
REMARK  258  A    between atoms: _669  and  _671
REMARK  259  A    between atoms: _671  and  _672
REMARK  260  A    between atoms: _674  and  _676
REMARK  261  A    between atoms: _676  and  _677
REMARK  262  A    between atoms: _676  and  _679
REMARK  263  A    between atoms: _679  and  _680
REMARK  264  A    between atoms: _685  and  _686
REMARK  265  A    between atoms: _688  and  _690
REMARK  266  A    between atoms: _690  and  _691
REMARK  267  A    between atoms: _690  and  _693
REMARK  268  A    between atoms: _693  and  _694
REMARK  269  A    between atoms: _694  and  _695
REMARK  270  A    between atoms: _698  and  _700
REMARK  271  A    between atoms: _700  and  _701
REMARK  272  A    between atoms: _700  and  _703
REMARK  273  A    between atoms: _703  and  _704
REMARK                            x       y       z     vdW  Elec       q    Type
REMARK                         _______ _______ _______ _____ _____    ______ ____
ROOT
ATOM      1  O   HOH     1      21.492  15.236  12.788  0.00  0.00    +0.000 OA
ENDROOT
TORSDOF 0
REMARK  Name = ../refined-set-2016/1q84/1q84_pocket.pdb
REMARK  273 active torsions:
REMARK  status: ('A' for Active; 'I' for Inactive)
REMARK    1  A    between atoms: _1  and  _3
REMARK    2  A    between atoms: _3  and  _4
REMARK    3  A    between atoms: _3  and  _6
REMARK    4  A    between atoms: _6  and  _7
REMARK    5  A    between atoms: _7  and  _8
REMARK    6  A    between atoms: _13  and  _15
REMARK    7  A    between atoms: _15  and  _16
REMARK    8  A    between atoms: _15  and  _18
REMARK    9  A    between atoms: _18  and  _19
REMARK   10  A    between atoms: _24  and  _25
REMARK   11  A    between atoms: _27  and  _29
REMARK   12  A    between atoms: _29  and  _30
REMARK   13  A    between atoms: _29  and  _32
REMARK   14  A    between atoms: _35  and  _37
REMARK   15  A    between atoms: _37  and  _38
REMARK   16  A    between atoms: _37  and  _40
REMARK   17  A    between atoms: _40  and  _41
REMARK   18  A    between atoms: _44  and  _46
REMARK   19  A    between atoms: _46  and  _47
REMARK   20  A    between atoms: _46  and  _49
REMARK   21  A    between atoms: _49  and  _50
REMARK   22  A    between atoms: _53  and  _55
REMARK   23  A    between atoms: _55  and  _56
REMARK   24  A    between atoms: _55  and  _58
REMARK   25  A    between atoms: _58  and  _59
REMARK   26  A    between atoms: _62  and  _64
REMARK   27  A    between atoms: _64  and  _65
REMARK   28  A    between atoms: _64  and  _67
REMARK   29  A    between atoms: _67  and  _68
REMARK   30  A    between atoms: _73  and  _74
REMARK   31  A    between atoms: _76  and  _78
REMARK   32  A    between atoms: _78  and  _79
REMARK   33  A    between atoms: _78  and  _81
REMARK   34  A    between atoms: _81  and  _82
REMARK   35  A    between atoms: _88  and  _90
REMARK   36  A    between atoms: _90  and  _91
REMARK   37  A    between atoms: _90  and  _93
REMARK   38  A    between atoms: _93  and  _94
REMARK   39  A    between atoms: _94  and  _95
REMARK   40  A    between atoms: _98  and  _100
REMARK   41  A    between atoms: _100  and  _101
REMARK   42  A    between atoms: _103  and  _105
REMARK   43  A    between atoms: _105  and  _106
REMARK   44  A    between atoms: _105  and  _108
REMARK   45  A    between atoms: _108  and  _109
REMARK   46  A    between atoms: _112  and  _114
REMARK   47  A    between atoms: _114  and  _115
REMARK   48  A    between atoms: _114  and  _117
REMARK   49  A    between atoms: _117  and  _118
REMARK   50  A    between atoms: _118  and  _119
REMARK   51  A    between atoms: _122  and  _124
REMARK   52  A    between atoms: _124  and  _125
REMARK   53  A    between atoms: _124  and  _127
REMARK   54  A    between atoms: _127  and  _128
REMARK   55  A    between atoms: _128  and  _129
REMARK   56  A    between atoms: _131  and  _133
REMARK   57  A    between atoms: _133  and  _134
REMARK   58  A    between atoms: _133  and  _136
REMARK   59  A    between atoms: _136  and  _137
REMARK   60  A    between atoms: _147  and  _149
REMARK   61  A    between atoms: _149  and  _150
REMARK   62  A    between atoms: _149  and  _152
REMARK   63  A    between atoms: _152  and  _153
REMARK   64  A    between atoms: _158  and  _160
REMARK   65  A    between atoms: _160  and  _161
REMARK   66  A    between atoms: _160  and  _163
REMARK   67  A    between atoms: _163  and  _164
REMARK   68  A    between atoms: _174  and  _176
REMARK   69  A    between atoms: _176  and  _177
REMARK   70  A    between atoms: _176  and  _179
REMARK   71  A    between atoms: _179  and  _180
REMARK   72  A    between atoms: _185  and  _186
REMARK   73  A    between atoms: _188  and  _190
REMARK   74  A    between atoms: _190  and  _191
REMARK   75  A    between atoms: _193  and  _195
REMARK   76  A    between atoms: _195  and  _196
REMARK   77  A    between atoms: _198  and  _200
REMARK   78  A    between atoms: _200  and  _201
REMARK   79  A    between atoms: _203  and  _205
REMARK   80  A    between atoms: _205  and  _206
REMARK   81  A    between atoms: _205  and  _208
REMARK   82  A    between atoms: _208  and  _209
REMARK   83  A    between atoms: _215  and  _217
REMARK   84  A    between atoms: _217  and  _218
REMARK   85  A    between atoms: _217  and  _220
REMARK   86  A    between atoms: _220  and  _221
REMARK   87  A    between atoms: _226  and  _227
REMARK   88  A    between atoms: _229  and  _231
REMARK   89  A    between atoms: _231  and  _232
REMARK   90  A    between atoms: _231  and  _234
REMARK   91  A    between atoms: _234  and  _235
REMARK   92  A    between atoms: _237  and  _239
REMARK   93  A    between atoms: _239  and  _240
REMARK   94  A    between atoms: _242  and  _244
REMARK   95  A    between atoms: _244  and  _245
REMARK   96  A    between atoms: _248  and  _250
REMARK   97  A    between atoms: _250  and  _251
REMARK   98  A    between atoms: _250  and  _253
REMARK   99  A    between atoms: _253  and  _254
REMARK  100  A    between atoms: _257  and  _259
REMARK  101  A    between atoms: _259  and  _260
REMARK  102  A    between atoms: _259  and  _262
REMARK  103  A    between atoms: _265  and  _267
REMARK  104  A    between atoms: _267  and  _268
REMARK  105  A    between atoms: _267  and  _270
REMARK  106  A    between atoms: _270  and  _271
REMARK  107  A    between atoms: _276  and  _277
REMARK  108  A    between atoms: _279  and  _281
REMARK  109  A    between atoms: _281  and  _282
REMARK  110  A    between atoms: _281  and  _284
REMARK  111  A    between atoms: _284  and  _285
REMARK  112  A    between atoms: _290  and  _291
REMARK  113  A    between atoms: _293  and  _295
REMARK  114  A    between atoms: _295  and  _296
REMARK  115  A    between atoms: _295  and  _298
REMARK  116  A    between atoms: _298  and  _299
REMARK  117  A    between atoms: _299  and  _300
REMARK  118  A    between atoms: _303  and  _305
REMARK  119  A    between atoms: _305  and  _306
REMARK  120  A    between atoms: _305  and  _308
REMARK  121  A    between atoms: _308  and  _309
REMARK  122  A    between atoms: _311  and  _313
REMARK  123  A    between atoms: _313  and  _314
REMARK  124  A    between atoms: _317  and  _319
REMARK  125  A    between atoms: _319  and  _320
REMARK  126  A    between atoms: _322  and  _324
REMARK  127  A    between atoms: _324  and  _325
REMARK  128  A    between atoms: _328  and  _330
REMARK  129  A    between atoms: _330  and  _331
REMARK  130  A    between atoms: _330  and  _333
REMARK  131  A    between atoms: _333  and  _334
REMARK  132  A    between atoms: _336  and  _338
REMARK  133  A    between atoms: _338  and  _339
REMARK  134  A    between atoms: _338  and  _341
REMARK  135  A    between atoms: _344  and  _346
REMARK  136  A    between atoms: _346  and  _347
REMARK  137  A    between atoms: _346  and  _349
REMARK  138  A    between atoms: _349  and  _350
REMARK  139  A    between atoms: _353  and  _355
REMARK  140  A    between atoms: _355  and  _356
REMARK  141  A    between atoms: _355  and  _358
REMARK  142  A    between atoms: _358  and  _359
REMARK  143  A    between atoms: _364  and  _366
REMARK  144  A    between atoms: _366  and  _367
REMARK  145  A    between atoms: _366  and  _369
REMARK  146  A    between atoms: _369  and  _370
REMARK  147  A    between atoms: _370  and  _371
REMARK  148  A    between atoms: _374  and  _376
REMARK  149  A    between atoms: _376  and  _377
REMARK  150  A    between atoms: _376  and  _379
REMARK  151  A    between atoms: _379  and  _380
REMARK  152  A    between atoms: _390  and  _392
REMARK  153  A    between atoms: _392  and  _393
REMARK  154  A    between atoms: _392  and  _395
REMARK  155  A    between atoms: _395  and  _396
REMARK  156  A    between atoms: _401  and  _403
REMARK  157  A    between atoms: _403  and  _404
REMARK  158  A    between atoms: _403  and  _406
REMARK  159  A    between atoms: _409  and  _411
REMARK  160  A    between atoms: _411  and  _412
REMARK  161  A    between atoms: _411  and  _414
REMARK  162  A    between atoms: _414  and  _415
REMARK  163  A    between atoms: _419  and  _420
REMARK  164  A    between atoms: _425  and  _427
REMARK  165  A    between atoms: _427  and  _428
REMARK  166  A    between atoms: _427  and  _430
REMARK  167  A    between atoms: _430  and  _431
REMARK  168  A    between atoms: _431  and  _432
REMARK  169  A    between atoms: _437  and  _439
REMARK  170  A    between atoms: _439  and  _440
REMARK  171  A    between atoms: _439  and  _442
REMARK  172  A    between atoms: _442  and  _443
REMARK  173  A    between atoms: _443  and  _444
REMARK  174  A    between atoms: _447  and  _449
REMARK  175  A    between atoms: _449  and  _450
REMARK  176  A    between atoms: _449  and  _452
REMARK  177  A    between atoms: _452  and  _453
REMARK  178  A    between atoms: _455  and  _457
REMARK  179  A    between atoms: _457  and  _458
REMARK  180  A    between atoms: _457  and  _460
REMARK  181  A    between atoms: _460  and  _461
REMARK  182  A    between atoms: _464  and  _466
REMARK  183  A    between atoms: _466  and  _467
REMARK  184  A    between atoms: _466  and  _469
REMARK  185  A    between atoms: _469  and  _470
REMARK  186  A    between atoms: _476  and  _478
REMARK  187  A    between atoms: _478  and  _479
REMARK  188  A    between atoms: _478  and  _481
REMARK  189  A    between atoms: _481  and  _482
REMARK  190  A    between atoms: _482  and  _483
REMARK  191  A    between atoms: _483  and  _484
REMARK  192  A    between atoms: _493  and  _495
REMARK  193  A    between atoms: _495  and  _496
REMARK  194  A    between atoms: _495  and  _498
REMARK  195  A    between atoms: _498  and  _499
REMARK  196  A    between atoms: _505  and  _507
REMARK  197  A    between atoms: _507  and  _508
REMARK  198  A    between atoms: _507  and  _510
REMARK  199  A    between atoms: _510  and  _511
REMARK  200  A    between atoms: _513  and  _515
REMARK  201  A    between atoms: _515  and  _516
REMARK  202  A    between atoms: _515  and  _518
REMARK  203  A    between atoms: _518  and  _519
REMARK  204  A    between atoms: _519  and  _520
REMARK  205  A    between atoms: _523  and  _525
REMARK  206  A    between atoms: _525  and  _526
REMARK  207  A    between atoms: _525  and  _528
REMARK  208  A    between atoms: _528  and  _529
REMARK  209  A    between atoms: _531  and  _533
REMARK  210  A    between atoms: _533  and  _534
REMARK  211  A    between atoms: _533  and  _536
REMARK  212  A    between atoms: _536  and  _537
REMARK  213  A    between atoms: _542  and  _543
REMARK  214  A    between atoms: _545  and  _547
REMARK  215  A    between atoms: _547  and  _548
REMARK  216  A    between atoms: _547  and  _550
REMARK  217  A    between atoms: _550  and  _551
REMARK  218  A    between atoms: _557  and  _559
REMARK  219  A    between atoms: _559  and  _560
REMARK  220  A    between atoms: _559  and  _562
REMARK  221  A    between atoms: _562  and  _563
REMARK  222  A    between atoms: _566  and  _568
REMARK  223  A    between atoms: _568  and  _569
REMARK  224  A    between atoms: _568  and  _571
REMARK  225  A    between atoms: _574  and  _576
REMARK  226  A    between atoms: _576  and  _577
REMARK  227  A    between atoms: _576  and  _579
REMARK  228  A    between atoms: _579  and  _580
REMARK  229  A    between atoms: _585  and  _586
REMARK  230  A    between atoms: _588  and  _590
REMARK  231  A    between atoms: _590  and  _591
REMARK  232  A    between atoms: _593  and  _595
REMARK  233  A    between atoms: _595  and  _596
REMARK  234  A    between atoms: _595  and  _598
REMARK  235  A    between atoms: _601  and  _603
REMARK  236  A    between atoms: _603  and  _604
REMARK  237  A    between atoms: _603  and  _606
REMARK  238  A    between atoms: _606  and  _607
REMARK  239  A    between atoms: _611  and  _612
REMARK  240  A    between atoms: _617  and  _619
REMARK  241  A    between atoms: _619  and  _620
REMARK  242  A    between atoms: _619  and  _622
REMARK  243  A    between atoms: _622  and  _623
REMARK  244  A    between atoms: _626  and  _628
REMARK  245  A    between atoms: _628  and  _629
REMARK  246  A    between atoms: _628  and  _631
REMARK  247  A    between atoms: _631  and  _632
REMARK  248  A    between atoms: _642  and  _644
REMARK  249  A    between atoms: _644  and  _645
REMARK  250  A    between atoms: _644  and  _647
REMARK  251  A    between atoms: _647  and  _648
REMARK  252  A    between atoms: _648  and  _649
REMARK  253  A    between atoms: _652  and  _653
REMARK  254  A    between atoms: _658  and  _660
REMARK  255  A    between atoms: _660  and  _661
REMARK  256  A    between atoms: _660  and  _663
REMARK  257  A    between atoms: _663  and  _664
REMARK  258  A    between atoms: _669  and  _671
REMARK  259  A    between atoms: _671  and  _672
REMARK  260  A    between atoms: _674  and  _676
REMARK  261  A    between atoms: _676  and  _677
REMARK  262  A    between atoms: _676  and  _679
REMARK  263  A    between atoms: _679  and  _680
REMARK  264  A    between atoms: _685  and  _686
REMARK  265  A    between atoms: _688  and  _690
REMARK  266  A    between atoms: _690  and  _691
REMARK  267  A    between atoms: _690  and  _693
REMARK  268  A    between atoms: _693  and  _694
REMARK  269  A    between atoms: _694  and  _695
REMARK  270  A    between atoms: _698  and  _700
REMARK  271  A    between atoms: _700  and  _701
REMARK  272  A    between atoms: _700  and  _703
REMARK  273  A    between atoms: _703  and  _704
REMARK                            x       y       z     vdW  Elec       q    Type
REMARK                         _______ _______ _______ _____ _____    ______ ____
ROOT
ATOM      1  O   HOH     1      22.610  20.564   7.359  0.00  0.00    +0.000 OA
ENDROOT
TORSDOF 0
REMARK  Name = ../refined-set-2016/1q84/1q84_pocket.pdb
REMARK  273 active torsions:
REMARK  status: ('A' for Active; 'I' for Inactive)
REMARK    1  A    between atoms: _1  and  _3
REMARK    2  A    between atoms: _3  and  _4
REMARK    3  A    between atoms: _3  and  _6
REMARK    4  A    between atoms: _6  and  _7
REMARK    5  A    between atoms: _7  and  _8
REMARK    6  A    between atoms: _13  and  _15
REMARK    7  A    between atoms: _15  and  _16
REMARK    8  A    between atoms: _15  and  _18
REMARK    9  A    between atoms: _18  and  _19
REMARK   10  A    between atoms: _24  and  _25
REMARK   11  A    between atoms: _27  and  _29
REMARK   12  A    between atoms: _29  and  _30
REMARK   13  A    between atoms: _29  and  _32
REMARK   14  A    between atoms: _35  and  _37
REMARK   15  A    between atoms: _37  and  _38
REMARK   16  A    between atoms: _37  and  _40
REMARK   17  A    between atoms: _40  and  _41
REMARK   18  A    between atoms: _44  and  _46
REMARK   19  A    between atoms: _46  and  _47
REMARK   20  A    between atoms: _46  and  _49
REMARK   21  A    between atoms: _49  and  _50
REMARK   22  A    between atoms: _53  and  _55
REMARK   23  A    between atoms: _55  and  _56
REMARK   24  A    between atoms: _55  and  _58
REMARK   25  A    between atoms: _58  and  _59
REMARK   26  A    between atoms: _62  and  _64
REMARK   27  A    between atoms: _64  and  _65
REMARK   28  A    between atoms: _64  and  _67
REMARK   29  A    between atoms: _67  and  _68
REMARK   30  A    between atoms: _73  and  _74
REMARK   31  A    between atoms: _76  and  _78
REMARK   32  A    between atoms: _78  and  _79
REMARK   33  A    between atoms: _78  and  _81
REMARK   34  A    between atoms: _81  and  _82
REMARK   35  A    between atoms: _88  and  _90
REMARK   36  A    between atoms: _90  and  _91
REMARK   37  A    between atoms: _90  and  _93
REMARK   38  A    between atoms: _93  and  _94
REMARK   39  A    between atoms: _94  and  _95
REMARK   40  A    between atoms: _98  and  _100
REMARK   41  A    between atoms: _100  and  _101
REMARK   42  A    between atoms: _103  and  _105
REMARK   43  A    between atoms: _105  and  _106
REMARK   44  A    between atoms: _105  and  _108
REMARK   45  A    between atoms: _108  and  _109
REMARK   46  A    between atoms: _112  and  _114
REMARK   47  A    between atoms: _114  and  _115
REMARK   48  A    between atoms: _114  and  _117
REMARK   49  A    between atoms: _117  and  _118
REMARK   50  A    between atoms: _118  and  _119
REMARK   51  A    between atoms: _122  and  _124
REMARK   52  A    between atoms: _124  and  _125
REMARK   53  A    between atoms: _124  and  _127
REMARK   54  A    between atoms: _127  and  _128
REMARK   55  A    between atoms: _128  and  _129
REMARK   56  A    between atoms: _131  and  _133
REMARK   57  A    between atoms: _133  and  _134
REMARK   58  A    between atoms: _133  and  _136
REMARK   59  A    between atoms: _136  and  _137
REMARK   60  A    between atoms: _147  and  _149
REMARK   61  A    between atoms: _149  and  _150
REMARK   62  A    between atoms: _149  and  _152
REMARK   63  A    between atoms: _152  and  _153
REMARK   64  A    between atoms: _158  and  _160
REMARK   65  A    between atoms: _160  and  _161
REMARK   66  A    between atoms: _160  and  _163
REMARK   67  A    between atoms: _163  and  _164
REMARK   68  A    between atoms: _174  and  _176
REMARK   69  A    between atoms: _176  and  _177
REMARK   70  A    between atoms: _176  and  _179
REMARK   71  A    between atoms: _179  and  _180
REMARK   72  A    between atoms: _185  and  _186
REMARK   73  A    between atoms: _188  and  _190
REMARK   74  A    between atoms: _190  and  _191
REMARK   75  A    between atoms: _193  and  _195
REMARK   76  A    between atoms: _195  and  _196
REMARK   77  A    between atoms: _198  and  _200
REMARK   78  A    between atoms: _200  and  _201
REMARK   79  A    between atoms: _203  and  _205
REMARK   80  A    between atoms: _205  and  _206
REMARK   81  A    between atoms: _205  and  _208
REMARK   82  A    between atoms: _208  and  _209
REMARK   83  A    between atoms: _215  and  _217
REMARK   84  A    between atoms: _217  and  _218
REMARK   85  A    between atoms: _217  and  _220
REMARK   86  A    between atoms: _220  and  _221
REMARK   87  A    between atoms: _226  and  _227
REMARK   88  A    between atoms: _229  and  _231
REMARK   89  A    between atoms: _231  and  _232
REMARK   90  A    between atoms: _231  and  _234
REMARK   91  A    between atoms: _234  and  _235
REMARK   92  A    between atoms: _237  and  _239
REMARK   93  A    between atoms: _239  and  _240
REMARK   94  A    between atoms: _242  and  _244
REMARK   95  A    between atoms: _244  and  _245
REMARK   96  A    between atoms: _248  and  _250
REMARK   97  A    between atoms: _250  and  _251
REMARK   98  A    between atoms: _250  and  _253
REMARK   99  A    between atoms: _253  and  _254
REMARK  100  A    between atoms: _257  and  _259
REMARK  101  A    between atoms: _259  and  _260
REMARK  102  A    between atoms: _259  and  _262
REMARK  103  A    between atoms: _265  and  _267
REMARK  104  A    between atoms: _267  and  _268
REMARK  105  A    between atoms: _267  and  _270
REMARK  106  A    between atoms: _270  and  _271
REMARK  107  A    between atoms: _276  and  _277
REMARK  108  A    between atoms: _279  and  _281
REMARK  109  A    between atoms: _281  and  _282
REMARK  110  A    between atoms: _281  and  _284
REMARK  111  A    between atoms: _284  and  _285
REMARK  112  A    between atoms: _290  and  _291
REMARK  113  A    between atoms: _293  and  _295
REMARK  114  A    between atoms: _295  and  _296
REMARK  115  A    between atoms: _295  and  _298
REMARK  116  A    between atoms: _298  and  _299
REMARK  117  A    between atoms: _299  and  _300
REMARK  118  A    between atoms: _303  and  _305
REMARK  119  A    between atoms: _305  and  _306
REMARK  120  A    between atoms: _305  and  _308
REMARK  121  A    between atoms: _308  and  _309
REMARK  122  A    between atoms: _311  and  _313
REMARK  123  A    between atoms: _313  and  _314
REMARK  124  A    between atoms: _317  and  _319
REMARK  125  A    between atoms: _319  and  _320
REMARK  126  A    between atoms: _322  and  _324
REMARK  127  A    between atoms: _324  and  _325
REMARK  128  A    between atoms: _328  and  _330
REMARK  129  A    between atoms: _330  and  _331
REMARK  130  A    between atoms: _330  and  _333
REMARK  131  A    between atoms: _333  and  _334
REMARK  132  A    between atoms: _336  and  _338
REMARK  133  A    between atoms: _338  and  _339
REMARK  134  A    between atoms: _338  and  _341
REMARK  135  A    between atoms: _344  and  _346
REMARK  136  A    between atoms: _346  and  _347
REMARK  137  A    between atoms: _346  and  _349
REMARK  138  A    between atoms: _349  and  _350
REMARK  139  A    between atoms: _353  and  _355
REMARK  140  A    between atoms: _355  and  _356
REMARK  141  A    between atoms: _355  and  _358
REMARK  142  A    between atoms: _358  and  _359
REMARK  143  A    between atoms: _364  and  _366
REMARK  144  A    between atoms: _366  and  _367
REMARK  145  A    between atoms: _366  and  _369
REMARK  146  A    between atoms: _369  and  _370
REMARK  147  A    between atoms: _370  and  _371
REMARK  148  A    between atoms: _374  and  _376
REMARK  149  A    between atoms: _376  and  _377
REMARK  150  A    between atoms: _376  and  _379
REMARK  151  A    between atoms: _379  and  _380
REMARK  152  A    between atoms: _390  and  _392
REMARK  153  A    between atoms: _392  and  _393
REMARK  154  A    between atoms: _392  and  _395
REMARK  155  A    between atoms: _395  and  _396
REMARK  156  A    between atoms: _401  and  _403
REMARK  157  A    between atoms: _403  and  _404
REMARK  158  A    between atoms: _403  and  _406
REMARK  159  A    between atoms: _409  and  _411
REMARK  160  A    between atoms: _411  and  _412
REMARK  161  A    between atoms: _411  and  _414
REMARK  162  A    between atoms: _414  and  _415
REMARK  163  A    between atoms: _419  and  _420
REMARK  164  A    between atoms: _425  and  _427
REMARK  165  A    between atoms: _427  and  _428
REMARK  166  A    between atoms: _427  and  _430
REMARK  167  A    between atoms: _430  and  _431
REMARK  168  A    between atoms: _431  and  _432
REMARK  169  A    between atoms: _437  and  _439
REMARK  170  A    between atoms: _439  and  _440
REMARK  171  A    between atoms: _439  and  _442
REMARK  172  A    between atoms: _442  and  _443
REMARK  173  A    between atoms: _443  and  _444
REMARK  174  A    between atoms: _447  and  _449
REMARK  175  A    between atoms: _449  and  _450
REMARK  176  A    between atoms: _449  and  _452
REMARK  177  A    between atoms: _452  and  _453
REMARK  178  A    between atoms: _455  and  _457
REMARK  179  A    between atoms: _457  and  _458
REMARK  180  A    between atoms: _457  and  _460
REMARK  181  A    between atoms: _460  and  _461
REMARK  182  A    between atoms: _464  and  _466
REMARK  183  A    between atoms: _466  and  _467
REMARK  184  A    between atoms: _466  and  _469
REMARK  185  A    between atoms: _469  and  _470
REMARK  186  A    between atoms: _476  and  _478
REMARK  187  A    between atoms: _478  and  _479
REMARK  188  A    between atoms: _478  and  _481
REMARK  189  A    between atoms: _481  and  _482
REMARK  190  A    between atoms: _482  and  _483
REMARK  191  A    between atoms: _483  and  _484
REMARK  192  A    between atoms: _493  and  _495
REMARK  193  A    between atoms: _495  and  _496
REMARK  194  A    between atoms: _495  and  _498
REMARK  195  A    between atoms: _498  and  _499
REMARK  196  A    between atoms: _505  and  _507
REMARK  197  A    between atoms: _507  and  _508
REMARK  198  A    between atoms: _507  and  _510
REMARK  199  A    between atoms: _510  and  _511
REMARK  200  A    between atoms: _513  and  _515
REMARK  201  A    between atoms: _515  and  _516
REMARK  202  A    between atoms: _515  and  _518
REMARK  203  A    between atoms: _518  and  _519
REMARK  204  A    between atoms: _519  and  _520
REMARK  205  A    between atoms: _523  and  _525
REMARK  206  A    between atoms: _525  and  _526
REMARK  207  A    between atoms: _525  and  _528
REMARK  208  A    between atoms: _528  and  _529
REMARK  209  A    between atoms: _531  and  _533
REMARK  210  A    between atoms: _533  and  _534
REMARK  211  A    between atoms: _533  and  _536
REMARK  212  A    between atoms: _536  and  _537
REMARK  213  A    between atoms: _542  and  _543
REMARK  214  A    between atoms: _545  and  _547
REMARK  215  A    between atoms: _547  and  _548
REMARK  216  A    between atoms: _547  and  _550
REMARK  217  A    between atoms: _550  and  _551
REMARK  218  A    between atoms: _557  and  _559
REMARK  219  A    between atoms: _559  and  _560
REMARK  220  A    between atoms: _559  and  _562
REMARK  221  A    between atoms: _562  and  _563
REMARK  222  A    between atoms: _566  and  _568
REMARK  223  A    between atoms: _568  and  _569
REMARK  224  A    between atoms: _568  and  _571
REMARK  225  A    between atoms: _574  and  _576
REMARK  226  A    between atoms: _576  and  _577
REMARK  227  A    between atoms: _576  and  _579
REMARK  228  A    between atoms: _579  and  _580
REMARK  229  A    between atoms: _585  and  _586
REMARK  230  A    between atoms: _588  and  _590
REMARK  231  A    between atoms: _590  and  _591
REMARK  232  A    between atoms: _593  and  _595
REMARK  233  A    between atoms: _595  and  _596
REMARK  234  A    between atoms: _595  and  _598
REMARK  235  A    between atoms: _601  and  _603
REMARK  236  A    between atoms: _603  and  _604
REMARK  237  A    between atoms: _603  and  _606
REMARK  238  A    between atoms: _606  and  _607
REMARK  239  A    between atoms: _611  and  _612
REMARK  240  A    between atoms: _617  and  _619
REMARK  241  A    between atoms: _619  and  _620
REMARK  242  A    between atoms: _619  and  _622
REMARK  243  A    between atoms: _622  and  _623
REMARK  244  A    between atoms: _626  and  _628
REMARK  245  A    between atoms: _628  and  _629
REMARK  246  A    between atoms: _628  and  _631
REMARK  247  A    between atoms: _631  and  _632
REMARK  248  A    between atoms: _642  and  _644
REMARK  249  A    between atoms: _644  and  _645
REMARK  250  A    between atoms: _644  and  _647
REMARK  251  A    between atoms: _647  and  _648
REMARK  252  A    between atoms: _648  and  _649
REMARK  253  A    between atoms: _652  and  _653
REMARK  254  A    between atoms: _658  and  _660
REMARK  255  A    between atoms: _660  and  _661
REMARK  256  A    between atoms: _660  and  _663
REMARK  257  A    between atoms: _663  and  _664
REMARK  258  A    between atoms: _669  and  _671
REMARK  259  A    between atoms: _671  and  _672
REMARK  260  A    between atoms: _674  and  _676
REMARK  261  A    between atoms: _676  and  _677
REMARK  262  A    between atoms: _676  and  _679
REMARK  263  A    between atoms: _679  and  _680
REMARK  264  A    between atoms: _685  and  _686
REMARK  265  A    between atoms: _688  and  _690
REMARK  266  A    between atoms: _690  and  _691
REMARK  267  A    between atoms: _690  and  _693
REMARK  268  A    between atoms: _693  and  _694
REMARK  269  A    between atoms: _694  and  _695
REMARK  270  A    between atoms: _698  and  _700
REMARK  271  A    between atoms: _700  and  _701
REMARK  272  A    between atoms: _700  and  _703
REMARK  273  A    between atoms: _703  and  _704
REMARK                            x       y       z     vdW  Elec       q    Type
REMARK                         _______ _______ _______ _____ _____    ______ ____
ROOT
ATOM      1  O   HOH     1      26.378  15.713  18.292  0.00  0.00    +0.000 OA
ENDROOT
TORSDOF 0
REMARK  Name = ../refined-set-2016/1q84/1q84_pocket.pdb
REMARK  273 active torsions:
REMARK  status: ('A' for Active; 'I' for Inactive)
REMARK    1  A    between atoms: _1  and  _3
REMARK    2  A    between atoms: _3  and  _4
REMARK    3  A    between atoms: _3  and  _6
REMARK    4  A    between atoms: _6  and  _7
REMARK    5  A    between atoms: _7  and  _8
REMARK    6  A    between atoms: _13  and  _15
REMARK    7  A    between atoms: _15  and  _16
REMARK    8  A    between atoms: _15  and  _18
REMARK    9  A    between atoms: _18  and  _19
REMARK   10  A    between atoms: _24  and  _25
REMARK   11  A    between atoms: _27  and  _29
REMARK   12  A    between atoms: _29  and  _30
REMARK   13  A    between atoms: _29  and  _32
REMARK   14  A    between atoms: _35  and  _37
REMARK   15  A    between atoms: _37  and  _38
REMARK   16  A    between atoms: _37  and  _40
REMARK   17  A    between atoms: _40  and  _41
REMARK   18  A    between atoms: _44  and  _46
REMARK   19  A    between atoms: _46  and  _47
REMARK   20  A    between atoms: _46  and  _49
REMARK   21  A    between atoms: _49  and  _50
REMARK   22  A    between atoms: _53  and  _55
REMARK   23  A    between atoms: _55  and  _56
REMARK   24  A    between atoms: _55  and  _58
REMARK   25  A    between atoms: _58  and  _59
REMARK   26  A    between atoms: _62  and  _64
REMARK   27  A    between atoms: _64  and  _65
REMARK   28  A    between atoms: _64  and  _67
REMARK   29  A    between atoms: _67  and  _68
REMARK   30  A    between atoms: _73  and  _74
REMARK   31  A    between atoms: _76  and  _78
REMARK   32  A    between atoms: _78  and  _79
REMARK   33  A    between atoms: _78  and  _81
REMARK   34  A    between atoms: _81  and  _82
REMARK   35  A    between atoms: _88  and  _90
REMARK   36  A    between atoms: _90  and  _91
REMARK   37  A    between atoms: _90  and  _93
REMARK   38  A    between atoms: _93  and  _94
REMARK   39  A    between atoms: _94  and  _95
REMARK   40  A    between atoms: _98  and  _100
REMARK   41  A    between atoms: _100  and  _101
REMARK   42  A    between atoms: _103  and  _105
REMARK   43  A    between atoms: _105  and  _106
REMARK   44  A    between atoms: _105  and  _108
REMARK   45  A    between atoms: _108  and  _109
REMARK   46  A    between atoms: _112  and  _114
REMARK   47  A    between atoms: _114  and  _115
REMARK   48  A    between atoms: _114  and  _117
REMARK   49  A    between atoms: _117  and  _118
REMARK   50  A    between atoms: _118  and  _119
REMARK   51  A    between atoms: _122  and  _124
REMARK   52  A    between atoms: _124  and  _125
REMARK   53  A    between atoms: _124  and  _127
REMARK   54  A    between atoms: _127  and  _128
REMARK   55  A    between atoms: _128  and  _129
REMARK   56  A    between atoms: _131  and  _133
REMARK   57  A    between atoms: _133  and  _134
REMARK   58  A    between atoms: _133  and  _136
REMARK   59  A    between atoms: _136  and  _137
REMARK   60  A    between atoms: _147  and  _149
REMARK   61  A    between atoms: _149  and  _150
REMARK   62  A    between atoms: _149  and  _152
REMARK   63  A    between atoms: _152  and  _153
REMARK   64  A    between atoms: _158  and  _160
REMARK   65  A    between atoms: _160  and  _161
REMARK   66  A    between atoms: _160  and  _163
REMARK   67  A    between atoms: _163  and  _164
REMARK   68  A    between atoms: _174  and  _176
REMARK   69  A    between atoms: _176  and  _177
REMARK   70  A    between atoms: _176  and  _179
REMARK   71  A    between atoms: _179  and  _180
REMARK   72  A    between atoms: _185  and  _186
REMARK   73  A    between atoms: _188  and  _190
REMARK   74  A    between atoms: _190  and  _191
REMARK   75  A    between atoms: _193  and  _195
REMARK   76  A    between atoms: _195  and  _196
REMARK   77  A    between atoms: _198  and  _200
REMARK   78  A    between atoms: _200  and  _201
REMARK   79  A    between atoms: _203  and  _205
REMARK   80  A    between atoms: _205  and  _206
REMARK   81  A    between atoms: _205  and  _208
REMARK   82  A    between atoms: _208  and  _209
REMARK   83  A    between atoms: _215  and  _217
REMARK   84  A    between atoms: _217  and  _218
REMARK   85  A    between atoms: _217  and  _220
REMARK   86  A    between atoms: _220  and  _221
REMARK   87  A    between atoms: _226  and  _227
REMARK   88  A    between atoms: _229  and  _231
REMARK   89  A    between atoms: _231  and  _232
REMARK   90  A    between atoms: _231  and  _234
REMARK   91  A    between atoms: _234  and  _235
REMARK   92  A    between atoms: _237  and  _239
REMARK   93  A    between atoms: _239  and  _240
REMARK   94  A    between atoms: _242  and  _244
REMARK   95  A    between atoms: _244  and  _245
REMARK   96  A    between atoms: _248  and  _250
REMARK   97  A    between atoms: _250  and  _251
REMARK   98  A    between atoms: _250  and  _253
REMARK   99  A    between atoms: _253  and  _254
REMARK  100  A    between atoms: _257  and  _259
REMARK  101  A    between atoms: _259  and  _260
REMARK  102  A    between atoms: _259  and  _262
REMARK  103  A    between atoms: _265  and  _267
REMARK  104  A    between atoms: _267  and  _268
REMARK  105  A    between atoms: _267  and  _270
REMARK  106  A    between atoms: _270  and  _271
REMARK  107  A    between atoms: _276  and  _277
REMARK  108  A    between atoms: _279  and  _281
REMARK  109  A    between atoms: _281  and  _282
REMARK  110  A    between atoms: _281  and  _284
REMARK  111  A    between atoms: _284  and  _285
REMARK  112  A    between atoms: _290  and  _291
REMARK  113  A    between atoms: _293  and  _295
REMARK  114  A    between atoms: _295  and  _296
REMARK  115  A    between atoms: _295  and  _298
REMARK  116  A    between atoms: _298  and  _299
REMARK  117  A    between atoms: _299  and  _300
REMARK  118  A    between atoms: _303  and  _305
REMARK  119  A    between atoms: _305  and  _306
REMARK  120  A    between atoms: _305  and  _308
REMARK  121  A    between atoms: _308  and  _309
REMARK  122  A    between atoms: _311  and  _313
REMARK  123  A    between atoms: _313  and  _314
REMARK  124  A    between atoms: _317  and  _319
REMARK  125  A    between atoms: _319  and  _320
REMARK  126  A    between atoms: _322  and  _324
REMARK  127  A    between atoms: _324  and  _325
REMARK  128  A    between atoms: _328  and  _330
REMARK  129  A    between atoms: _330  and  _331
REMARK  130  A    between atoms: _330  and  _333
REMARK  131  A    between atoms: _333  and  _334
REMARK  132  A    between atoms: _336  and  _338
REMARK  133  A    between atoms: _338  and  _339
REMARK  134  A    between atoms: _338  and  _341
REMARK  135  A    between atoms: _344  and  _346
REMARK  136  A    between atoms: _346  and  _347
REMARK  137  A    between atoms: _346  and  _349
REMARK  138  A    between atoms: _349  and  _350
REMARK  139  A    between atoms: _353  and  _355
REMARK  140  A    between atoms: _355  and  _356
REMARK  141  A    between atoms: _355  and  _358
REMARK  142  A    between atoms: _358  and  _359
REMARK  143  A    between atoms: _364  and  _366
REMARK  144  A    between atoms: _366  and  _367
REMARK  145  A    between atoms: _366  and  _369
REMARK  146  A    between atoms: _369  and  _370
REMARK  147  A    between atoms: _370  and  _371
REMARK  148  A    between atoms: _374  and  _376
REMARK  149  A    between atoms: _376  and  _377
REMARK  150  A    between atoms: _376  and  _379
REMARK  151  A    between atoms: _379  and  _380
REMARK  152  A    between atoms: _390  and  _392
REMARK  153  A    between atoms: _392  and  _393
REMARK  154  A    between atoms: _392  and  _395
REMARK  155  A    between atoms: _395  and  _396
REMARK  156  A    between atoms: _401  and  _403
REMARK  157  A    between atoms: _403  and  _404
REMARK  158  A    between atoms: _403  and  _406
REMARK  159  A    between atoms: _409  and  _411
REMARK  160  A    between atoms: _411  and  _412
REMARK  161  A    between atoms: _411  and  _414
REMARK  162  A    between atoms: _414  and  _415
REMARK  163  A    between atoms: _419  and  _420
REMARK  164  A    between atoms: _425  and  _427
REMARK  165  A    between atoms: _427  and  _428
REMARK  166  A    between atoms: _427  and  _430
REMARK  167  A    between atoms: _430  and  _431
REMARK  168  A    between atoms: _431  and  _432
REMARK  169  A    between atoms: _437  and  _439
REMARK  170  A    between atoms: _439  and  _440
REMARK  171  A    between atoms: _439  and  _442
REMARK  172  A    between atoms: _442  and  _443
REMARK  173  A    between atoms: _443  and  _444
REMARK  174  A    between atoms: _447  and  _449
REMARK  175  A    between atoms: _449  and  _450
REMARK  176  A    between atoms: _449  and  _452
REMARK  177  A    between atoms: _452  and  _453
REMARK  178  A    between atoms: _455  and  _457
REMARK  179  A    between atoms: _457  and  _458
REMARK  180  A    between atoms: _457  and  _460
REMARK  181  A    between atoms: _460  and  _461
REMARK  182  A    between atoms: _464  and  _466
REMARK  183  A    between atoms: _466  and  _467
REMARK  184  A    between atoms: _466  and  _469
REMARK  185  A    between atoms: _469  and  _470
REMARK  186  A    between atoms: _476  and  _478
REMARK  187  A    between atoms: _478  and  _479
REMARK  188  A    between atoms: _478  and  _481
REMARK  189  A    between atoms: _481  and  _482
REMARK  190  A    between atoms: _482  and  _483
REMARK  191  A    between atoms: _483  and  _484
REMARK  192  A    between atoms: _493  and  _495
REMARK  193  A    between atoms: _495  and  _496
REMARK  194  A    between atoms: _495  and  _498
REMARK  195  A    between atoms: _498  and  _499
REMARK  196  A    between atoms: _505  and  _507
REMARK  197  A    between atoms: _507  and  _508
REMARK  198  A    between atoms: _507  and  _510
REMARK  199  A    between atoms: _510  and  _511
REMARK  200  A    between atoms: _513  and  _515
REMARK  201  A    between atoms: _515  and  _516
REMARK  202  A    between atoms: _515  and  _518
REMARK  203  A    between atoms: _518  and  _519
REMARK  204  A    between atoms: _519  and  _520
REMARK  205  A    between atoms: _523  and  _525
REMARK  206  A    between atoms: _525  and  _526
REMARK  207  A    between atoms: _525  and  _528
REMARK  208  A    between atoms: _528  and  _529
REMARK  209  A    between atoms: _531  and  _533
REMARK  210  A    between atoms: _533  and  _534
REMARK  211  A    between atoms: _533  and  _536
REMARK  212  A    between atoms: _536  and  _537
REMARK  213  A    between atoms: _542  and  _543
REMARK  214  A    between atoms: _545  and  _547
REMARK  215  A    between atoms: _547  and  _548
REMARK  216  A    between atoms: _547  and  _550
REMARK  217  A    between atoms: _550  and  _551
REMARK  218  A    between atoms: _557  and  _559
REMARK  219  A    between atoms: _559  and  _560
REMARK  220  A    between atoms: _559  and  _562
REMARK  221  A    between atoms: _562  and  _563
REMARK  222  A    between atoms: _566  and  _568
REMARK  223  A    between atoms: _568  and  _569
REMARK  224  A    between atoms: _568  and  _571
REMARK  225  A    between atoms: _574  and  _576
REMARK  226  A    between atoms: _576  and  _577
REMARK  227  A    between atoms: _576  and  _579
REMARK  228  A    between atoms: _579  and  _580
REMARK  229  A    between atoms: _585  and  _586
REMARK  230  A    between atoms: _588  and  _590
REMARK  231  A    between atoms: _590  and  _591
REMARK  232  A    between atoms: _593  and  _595
REMARK  233  A    between atoms: _595  and  _596
REMARK  234  A    between atoms: _595  and  _598
REMARK  235  A    between atoms: _601  and  _603
REMARK  236  A    between atoms: _603  and  _604
REMARK  237  A    between atoms: _603  and  _606
REMARK  238  A    between atoms: _606  and  _607
REMARK  239  A    between atoms: _611  and  _612
REMARK  240  A    between atoms: _617  and  _619
REMARK  241  A    between atoms: _619  and  _620
REMARK  242  A    between atoms: _619  and  _622
REMARK  243  A    between atoms: _622  and  _623
REMARK  244  A    between atoms: _626  and  _628
REMARK  245  A    between atoms: _628  and  _629
REMARK  246  A    between atoms: _628  and  _631
REMARK  247  A    between atoms: _631  and  _632
REMARK  248  A    between atoms: _642  and  _644
REMARK  249  A    between atoms: _644  and  _645
REMARK  250  A    between atoms: _644  and  _647
REMARK  251  A    between atoms: _647  and  _648
REMARK  252  A    between atoms: _648  and  _649
REMARK  253  A    between atoms: _652  and  _653
REMARK  254  A    between atoms: _658  and  _660
REMARK  255  A    between atoms: _660  and  _661
REMARK  256  A    between atoms: _660  and  _663
REMARK  257  A    between atoms: _663  and  _664
REMARK  258  A    between atoms: _669  and  _671
REMARK  259  A    between atoms: _671  and  _672
REMARK  260  A    between atoms: _674  and  _676
REMARK  261  A    between atoms: _676  and  _677
REMARK  262  A    between atoms: _676  and  _679
REMARK  263  A    between atoms: _679  and  _680
REMARK  264  A    between atoms: _685  and  _686
REMARK  265  A    between atoms: _688  and  _690
REMARK  266  A    between atoms: _690  and  _691
REMARK  267  A    between atoms: _690  and  _693
REMARK  268  A    between atoms: _693  and  _694
REMARK  269  A    between atoms: _694  and  _695
REMARK  270  A    between atoms: _698  and  _700
REMARK  271  A    between atoms: _700  and  _701
REMARK  272  A    between atoms: _700  and  _703
REMARK  273  A    between atoms: _703  and  _704
REMARK                            x       y       z     vdW  Elec       q    Type
REMARK                         _______ _______ _______ _____ _____    ______ ____
ROOT
ATOM      1  O   HOH     1      19.722  20.402  18.419  0.00  0.00    +0.000 OA
ENDROOT
TORSDOF 0
REMARK  Name = ../refined-set-2016/1q84/1q84_pocket.pdb
REMARK  273 active torsions:
REMARK  status: ('A' for Active; 'I' for Inactive)
REMARK    1  A    between atoms: _1  and  _3
REMARK    2  A    between atoms: _3  and  _4
REMARK    3  A    between atoms: _3  and  _6
REMARK    4  A    between atoms: _6  and  _7
REMARK    5  A    between atoms: _7  and  _8
REMARK    6  A    between atoms: _13  and  _15
REMARK    7  A    between atoms: _15  and  _16
REMARK    8  A    between atoms: _15  and  _18
REMARK    9  A    between atoms: _18  and  _19
REMARK   10  A    between atoms: _24  and  _25
REMARK   11  A    between atoms: _27  and  _29
REMARK   12  A    between atoms: _29  and  _30
REMARK   13  A    between atoms: _29  and  _32
REMARK   14  A    between atoms: _35  and  _37
REMARK   15  A    between atoms: _37  and  _38
REMARK   16  A    between atoms: _37  and  _40
REMARK   17  A    between atoms: _40  and  _41
REMARK   18  A    between atoms: _44  and  _46
REMARK   19  A    between atoms: _46  and  _47
REMARK   20  A    between atoms: _46  and  _49
REMARK   21  A    between atoms: _49  and  _50
REMARK   22  A    between atoms: _53  and  _55
REMARK   23  A    between atoms: _55  and  _56
REMARK   24  A    between atoms: _55  and  _58
REMARK   25  A    between atoms: _58  and  _59
REMARK   26  A    between atoms: _62  and  _64
REMARK   27  A    between atoms: _64  and  _65
REMARK   28  A    between atoms: _64  and  _67
REMARK   29  A    between atoms: _67  and  _68
REMARK   30  A    between atoms: _73  and  _74
REMARK   31  A    between atoms: _76  and  _78
REMARK   32  A    between atoms: _78  and  _79
REMARK   33  A    between atoms: _78  and  _81
REMARK   34  A    between atoms: _81  and  _82
REMARK   35  A    between atoms: _88  and  _90
REMARK   36  A    between atoms: _90  and  _91
REMARK   37  A    between atoms: _90  and  _93
REMARK   38  A    between atoms: _93  and  _94
REMARK   39  A    between atoms: _94  and  _95
REMARK   40  A    between atoms: _98  and  _100
REMARK   41  A    between atoms: _100  and  _101
REMARK   42  A    between atoms: _103  and  _105
REMARK   43  A    between atoms: _105  and  _106
REMARK   44  A    between atoms: _105  and  _108
REMARK   45  A    between atoms: _108  and  _109
REMARK   46  A    between atoms: _112  and  _114
REMARK   47  A    between atoms: _114  and  _115
REMARK   48  A    between atoms: _114  and  _117
REMARK   49  A    between atoms: _117  and  _118
REMARK   50  A    between atoms: _118  and  _119
REMARK   51  A    between atoms: _122  and  _124
REMARK   52  A    between atoms: _124  and  _125
REMARK   53  A    between atoms: _124  and  _127
REMARK   54  A    between atoms: _127  and  _128
REMARK   55  A    between atoms: _128  and  _129
REMARK   56  A    between atoms: _131  and  _133
REMARK   57  A    between atoms: _133  and  _134
REMARK   58  A    between atoms: _133  and  _136
REMARK   59  A    between atoms: _136  and  _137
REMARK   60  A    between atoms: _147  and  _149
REMARK   61  A    between atoms: _149  and  _150
REMARK   62  A    between atoms: _149  and  _152
REMARK   63  A    between atoms: _152  and  _153
REMARK   64  A    between atoms: _158  and  _160
REMARK   65  A    between atoms: _160  and  _161
REMARK   66  A    between atoms: _160  and  _163
REMARK   67  A    between atoms: _163  and  _164
REMARK   68  A    between atoms: _174  and  _176
REMARK   69  A    between atoms: _176  and  _177
REMARK   70  A    between atoms: _176  and  _179
REMARK   71  A    between atoms: _179  and  _180
REMARK   72  A    between atoms: _185  and  _186
REMARK   73  A    between atoms: _188  and  _190
REMARK   74  A    between atoms: _190  and  _191
REMARK   75  A    between atoms: _193  and  _195
REMARK   76  A    between atoms: _195  and  _196
REMARK   77  A    between atoms: _198  and  _200
REMARK   78  A    between atoms: _200  and  _201
REMARK   79  A    between atoms: _203  and  _205
REMARK   80  A    between atoms: _205  and  _206
REMARK   81  A    between atoms: _205  and  _208
REMARK   82  A    between atoms: _208  and  _209
REMARK   83  A    between atoms: _215  and  _217
REMARK   84  A    between atoms: _217  and  _218
REMARK   85  A    between atoms: _217  and  _220
REMARK   86  A    between atoms: _220  and  _221
REMARK   87  A    between atoms: _226  and  _227
REMARK   88  A    between atoms: _229  and  _231
REMARK   89  A    between atoms: _231  and  _232
REMARK   90  A    between atoms: _231  and  _234
REMARK   91  A    between atoms: _234  and  _235
REMARK   92  A    between atoms: _237  and  _239
REMARK   93  A    between atoms: _239  and  _240
REMARK   94  A    between atoms: _242  and  _244
REMARK   95  A    between atoms: _244  and  _245
REMARK   96  A    between atoms: _248  and  _250
REMARK   97  A    between atoms: _250  and  _251
REMARK   98  A    between atoms: _250  and  _253
REMARK   99  A    between atoms: _253  and  _254
REMARK  100  A    between atoms: _257  and  _259
REMARK  101  A    between atoms: _259  and  _260
REMARK  102  A    between atoms: _259  and  _262
REMARK  103  A    between atoms: _265  and  _267
REMARK  104  A    between atoms: _267  and  _268
REMARK  105  A    between atoms: _267  and  _270
REMARK  106  A    between atoms: _270  and  _271
REMARK  107  A    between atoms: _276  and  _277
REMARK  108  A    between atoms: _279  and  _281
REMARK  109  A    between atoms: _281  and  _282
REMARK  110  A    between atoms: _281  and  _284
REMARK  111  A    between atoms: _284  and  _285
REMARK  112  A    between atoms: _290  and  _291
REMARK  113  A    between atoms: _293  and  _295
REMARK  114  A    between atoms: _295  and  _296
REMARK  115  A    between atoms: _295  and  _298
REMARK  116  A    between atoms: _298  and  _299
REMARK  117  A    between atoms: _299  and  _300
REMARK  118  A    between atoms: _303  and  _305
REMARK  119  A    between atoms: _305  and  _306
REMARK  120  A    between atoms: _305  and  _308
REMARK  121  A    between atoms: _308  and  _309
REMARK  122  A    between atoms: _311  and  _313
REMARK  123  A    between atoms: _313  and  _314
REMARK  124  A    between atoms: _317  and  _319
REMARK  125  A    between atoms: _319  and  _320
REMARK  126  A    between atoms: _322  and  _324
REMARK  127  A    between atoms: _324  and  _325
REMARK  128  A    between atoms: _328  and  _330
REMARK  129  A    between atoms: _330  and  _331
REMARK  130  A    between atoms: _330  and  _333
REMARK  131  A    between atoms: _333  and  _334
REMARK  132  A    between atoms: _336  and  _338
REMARK  133  A    between atoms: _338  and  _339
REMARK  134  A    between atoms: _338  and  _341
REMARK  135  A    between atoms: _344  and  _346
REMARK  136  A    between atoms: _346  and  _347
REMARK  137  A    between atoms: _346  and  _349
REMARK  138  A    between atoms: _349  and  _350
REMARK  139  A    between atoms: _353  and  _355
REMARK  140  A    between atoms: _355  and  _356
REMARK  141  A    between atoms: _355  and  _358
REMARK  142  A    between atoms: _358  and  _359
REMARK  143  A    between atoms: _364  and  _366
REMARK  144  A    between atoms: _366  and  _367
REMARK  145  A    between atoms: _366  and  _369
REMARK  146  A    between atoms: _369  and  _370
REMARK  147  A    between atoms: _370  and  _371
REMARK  148  A    between atoms: _374  and  _376
REMARK  149  A    between atoms: _376  and  _377
REMARK  150  A    between atoms: _376  and  _379
REMARK  151  A    between atoms: _379  and  _380
REMARK  152  A    between atoms: _390  and  _392
REMARK  153  A    between atoms: _392  and  _393
REMARK  154  A    between atoms: _392  and  _395
REMARK  155  A    between atoms: _395  and  _396
REMARK  156  A    between atoms: _401  and  _403
REMARK  157  A    between atoms: _403  and  _404
REMARK  158  A    between atoms: _403  and  _406
REMARK  159  A    between atoms: _409  and  _411
REMARK  160  A    between atoms: _411  and  _412
REMARK  161  A    between atoms: _411  and  _414
REMARK  162  A    between atoms: _414  and  _415
REMARK  163  A    between atoms: _419  and  _420
REMARK  164  A    between atoms: _425  and  _427
REMARK  165  A    between atoms: _427  and  _428
REMARK  166  A    between atoms: _427  and  _430
REMARK  167  A    between atoms: _430  and  _431
REMARK  168  A    between atoms: _431  and  _432
REMARK  169  A    between atoms: _437  and  _439
REMARK  170  A    between atoms: _439  and  _440
REMARK  171  A    between atoms: _439  and  _442
REMARK  172  A    between atoms: _442  and  _443
REMARK  173  A    between atoms: _443  and  _444
REMARK  174  A    between atoms: _447  and  _449
REMARK  175  A    between atoms: _449  and  _450
REMARK  176  A    between atoms: _449  and  _452
REMARK  177  A    between atoms: _452  and  _453
REMARK  178  A    between atoms: _455  and  _457
REMARK  179  A    between atoms: _457  and  _458
REMARK  180  A    between atoms: _457  and  _460
REMARK  181  A    between atoms: _460  and  _461
REMARK  182  A    between atoms: _464  and  _466
REMARK  183  A    between atoms: _466  and  _467
REMARK  184  A    between atoms: _466  and  _469
REMARK  185  A    between atoms: _469  and  _470
REMARK  186  A    between atoms: _476  and  _478
REMARK  187  A    between atoms: _478  and  _479
REMARK  188  A    between atoms: _478  and  _481
REMARK  189  A    between atoms: _481  and  _482
REMARK  190  A    between atoms: _482  and  _483
REMARK  191  A    between atoms: _483  and  _484
REMARK  192  A    between atoms: _493  and  _495
REMARK  193  A    between atoms: _495  and  _496
REMARK  194  A    between atoms: _495  and  _498
REMARK  195  A    between atoms: _498  and  _499
REMARK  196  A    between atoms: _505  and  _507
REMARK  197  A    between atoms: _507  and  _508
REMARK  198  A    between atoms: _507  and  _510
REMARK  199  A    between atoms: _510  and  _511
REMARK  200  A    between atoms: _513  and  _515
REMARK  201  A    between atoms: _515  and  _516
REMARK  202  A    between atoms: _515  and  _518
REMARK  203  A    between atoms: _518  and  _519
REMARK  204  A    between atoms: _519  and  _520
REMARK  205  A    between atoms: _523  and  _525
REMARK  206  A    between atoms: _525  and  _526
REMARK  207  A    between atoms: _525  and  _528
REMARK  208  A    between atoms: _528  and  _529
REMARK  209  A    between atoms: _531  and  _533
REMARK  210  A    between atoms: _533  and  _534
REMARK  211  A    between atoms: _533  and  _536
REMARK  212  A    between atoms: _536  and  _537
REMARK  213  A    between atoms: _542  and  _543
REMARK  214  A    between atoms: _545  and  _547
REMARK  215  A    between atoms: _547  and  _548
REMARK  216  A    between atoms: _547  and  _550
REMARK  217  A    between atoms: _550  and  _551
REMARK  218  A    between atoms: _557  and  _559
REMARK  219  A    between atoms: _559  and  _560
REMARK  220  A    between atoms: _559  and  _562
REMARK  221  A    between atoms: _562  and  _563
REMARK  222  A    between atoms: _566  and  _568
REMARK  223  A    between atoms: _568  and  _569
REMARK  224  A    between atoms: _568  and  _571
REMARK  225  A    between atoms: _574  and  _576
REMARK  226  A    between atoms: _576  and  _577
REMARK  227  A    between atoms: _576  and  _579
REMARK  228  A    between atoms: _579  and  _580
REMARK  229  A    between atoms: _585  and  _586
REMARK  230  A    between atoms: _588  and  _590
REMARK  231  A    between atoms: _590  and  _591
REMARK  232  A    between atoms: _593  and  _595
REMARK  233  A    between atoms: _595  and  _596
REMARK  234  A    between atoms: _595  and  _598
REMARK  235  A    between atoms: _601  and  _603
REMARK  236  A    between atoms: _603  and  _604
REMARK  237  A    between atoms: _603  and  _606
REMARK  238  A    between atoms: _606  and  _607
REMARK  239  A    between atoms: _611  and  _612
REMARK  240  A    between atoms: _617  and  _619
REMARK  241  A    between atoms: _619  and  _620
REMARK  242  A    between atoms: _619  and  _622
REMARK  243  A    between atoms: _622  and  _623
REMARK  244  A    between atoms: _626  and  _628
REMARK  245  A    between atoms: _628  and  _629
REMARK  246  A    between atoms: _628  and  _631
REMARK  247  A    between atoms: _631  and  _632
REMARK  248  A    between atoms: _642  and  _644
REMARK  249  A    between atoms: _644  and  _645
REMARK  250  A    between atoms: _644  and  _647
REMARK  251  A    between atoms: _647  and  _648
REMARK  252  A    between atoms: _648  and  _649
REMARK  253  A    between atoms: _652  and  _653
REMARK  254  A    between atoms: _658  and  _660
REMARK  255  A    between atoms: _660  and  _661
REMARK  256  A    between atoms: _660  and  _663
REMARK  257  A    between atoms: _663  and  _664
REMARK  258  A    between atoms: _669  and  _671
REMARK  259  A    between atoms: _671  and  _672
REMARK  260  A    between atoms: _674  and  _676
REMARK  261  A    between atoms: _676  and  _677
REMARK  262  A    between atoms: _676  and  _679
REMARK  263  A    between atoms: _679  and  _680
REMARK  264  A    between atoms: _685  and  _686
REMARK  265  A    between atoms: _688  and  _690
REMARK  266  A    between atoms: _690  and  _691
REMARK  267  A    between atoms: _690  and  _693
REMARK  268  A    between atoms: _693  and  _694
REMARK  269  A    between atoms: _694  and  _695
REMARK  270  A    between atoms: _698  and  _700
REMARK  271  A    between atoms: _700  and  _701
REMARK  272  A    between atoms: _700  and  _703
REMARK  273  A    between atoms: _703  and  _704
REMARK                            x       y       z     vdW  Elec       q    Type
REMARK                         _______ _______ _______ _____ _____    ______ ____
ROOT
ATOM      1  O   HOH     1      29.531  18.123  19.762  0.00  0.00    +0.000 OA
ENDROOT
TORSDOF 0
REMARK  Name = ../refined-set-2016/1q84/1q84_pocket.pdb
REMARK  273 active torsions:
REMARK  status: ('A' for Active; 'I' for Inactive)
REMARK    1  A    between atoms: _1  and  _3
REMARK    2  A    between atoms: _3  and  _4
REMARK    3  A    between atoms: _3  and  _6
REMARK    4  A    between atoms: _6  and  _7
REMARK    5  A    between atoms: _7  and  _8
REMARK    6  A    between atoms: _13  and  _15
REMARK    7  A    between atoms: _15  and  _16
REMARK    8  A    between atoms: _15  and  _18
REMARK    9  A    between atoms: _18  and  _19
REMARK   10  A    between atoms: _24  and  _25
REMARK   11  A    between atoms: _27  and  _29
REMARK   12  A    between atoms: _29  and  _30
REMARK   13  A    between atoms: _29  and  _32
REMARK   14  A    between atoms: _35  and  _37
REMARK   15  A    between atoms: _37  and  _38
REMARK   16  A    between atoms: _37  and  _40
REMARK   17  A    between atoms: _40  and  _41
REMARK   18  A    between atoms: _44  and  _46
REMARK   19  A    between atoms: _46  and  _47
REMARK   20  A    between atoms: _46  and  _49
REMARK   21  A    between atoms: _49  and  _50
REMARK   22  A    between atoms: _53  and  _55
REMARK   23  A    between atoms: _55  and  _56
REMARK   24  A    between atoms: _55  and  _58
REMARK   25  A    between atoms: _58  and  _59
REMARK   26  A    between atoms: _62  and  _64
REMARK   27  A    between atoms: _64  and  _65
REMARK   28  A    between atoms: _64  and  _67
REMARK   29  A    between atoms: _67  and  _68
REMARK   30  A    between atoms: _73  and  _74
REMARK   31  A    between atoms: _76  and  _78
REMARK   32  A    between atoms: _78  and  _79
REMARK   33  A    between atoms: _78  and  _81
REMARK   34  A    between atoms: _81  and  _82
REMARK   35  A    between atoms: _88  and  _90
REMARK   36  A    between atoms: _90  and  _91
REMARK   37  A    between atoms: _90  and  _93
REMARK   38  A    between atoms: _93  and  _94
REMARK   39  A    between atoms: _94  and  _95
REMARK   40  A    between atoms: _98  and  _100
REMARK   41  A    between atoms: _100  and  _101
REMARK   42  A    between atoms: _103  and  _105
REMARK   43  A    between atoms: _105  and  _106
REMARK   44  A    between atoms: _105  and  _108
REMARK   45  A    between atoms: _108  and  _109
REMARK   46  A    between atoms: _112  and  _114
REMARK   47  A    between atoms: _114  and  _115
REMARK   48  A    between atoms: _114  and  _117
REMARK   49  A    between atoms: _117  and  _118
REMARK   50  A    between atoms: _118  and  _119
REMARK   51  A    between atoms: _122  and  _124
REMARK   52  A    between atoms: _124  and  _125
REMARK   53  A    between atoms: _124  and  _127
REMARK   54  A    between atoms: _127  and  _128
REMARK   55  A    between atoms: _128  and  _129
REMARK   56  A    between atoms: _131  and  _133
REMARK   57  A    between atoms: _133  and  _134
REMARK   58  A    between atoms: _133  and  _136
REMARK   59  A    between atoms: _136  and  _137
REMARK   60  A    between atoms: _147  and  _149
REMARK   61  A    between atoms: _149  and  _150
REMARK   62  A    between atoms: _149  and  _152
REMARK   63  A    between atoms: _152  and  _153
REMARK   64  A    between atoms: _158  and  _160
REMARK   65  A    between atoms: _160  and  _161
REMARK   66  A    between atoms: _160  and  _163
REMARK   67  A    between atoms: _163  and  _164
REMARK   68  A    between atoms: _174  and  _176
REMARK   69  A    between atoms: _176  and  _177
REMARK   70  A    between atoms: _176  and  _179
REMARK   71  A    between atoms: _179  and  _180
REMARK   72  A    between atoms: _185  and  _186
REMARK   73  A    between atoms: _188  and  _190
REMARK   74  A    between atoms: _190  and  _191
REMARK   75  A    between atoms: _193  and  _195
REMARK   76  A    between atoms: _195  and  _196
REMARK   77  A    between atoms: _198  and  _200
REMARK   78  A    between atoms: _200  and  _201
REMARK   79  A    between atoms: _203  and  _205
REMARK   80  A    between atoms: _205  and  _206
REMARK   81  A    between atoms: _205  and  _208
REMARK   82  A    between atoms: _208  and  _209
REMARK   83  A    between atoms: _215  and  _217
REMARK   84  A    between atoms: _217  and  _218
REMARK   85  A    between atoms: _217  and  _220
REMARK   86  A    between atoms: _220  and  _221
REMARK   87  A    between atoms: _226  and  _227
REMARK   88  A    between atoms: _229  and  _231
REMARK   89  A    between atoms: _231  and  _232
REMARK   90  A    between atoms: _231  and  _234
REMARK   91  A    between atoms: _234  and  _235
REMARK   92  A    between atoms: _237  and  _239
REMARK   93  A    between atoms: _239  and  _240
REMARK   94  A    between atoms: _242  and  _244
REMARK   95  A    between atoms: _244  and  _245
REMARK   96  A    between atoms: _248  and  _250
REMARK   97  A    between atoms: _250  and  _251
REMARK   98  A    between atoms: _250  and  _253
REMARK   99  A    between atoms: _253  and  _254
REMARK  100  A    between atoms: _257  and  _259
REMARK  101  A    between atoms: _259  and  _260
REMARK  102  A    between atoms: _259  and  _262
REMARK  103  A    between atoms: _265  and  _267
REMARK  104  A    between atoms: _267  and  _268
REMARK  105  A    between atoms: _267  and  _270
REMARK  106  A    between atoms: _270  and  _271
REMARK  107  A    between atoms: _276  and  _277
REMARK  108  A    between atoms: _279  and  _281
REMARK  109  A    between atoms: _281  and  _282
REMARK  110  A    between atoms: _281  and  _284
REMARK  111  A    between atoms: _284  and  _285
REMARK  112  A    between atoms: _290  and  _291
REMARK  113  A    between atoms: _293  and  _295
REMARK  114  A    between atoms: _295  and  _296
REMARK  115  A    between atoms: _295  and  _298
REMARK  116  A    between atoms: _298  and  _299
REMARK  117  A    between atoms: _299  and  _300
REMARK  118  A    between atoms: _303  and  _305
REMARK  119  A    between atoms: _305  and  _306
REMARK  120  A    between atoms: _305  and  _308
REMARK  121  A    between atoms: _308  and  _309
REMARK  122  A    between atoms: _311  and  _313
REMARK  123  A    between atoms: _313  and  _314
REMARK  124  A    between atoms: _317  and  _319
REMARK  125  A    between atoms: _319  and  _320
REMARK  126  A    between atoms: _322  and  _324
REMARK  127  A    between atoms: _324  and  _325
REMARK  128  A    between atoms: _328  and  _330
REMARK  129  A    between atoms: _330  and  _331
REMARK  130  A    between atoms: _330  and  _333
REMARK  131  A    between atoms: _333  and  _334
REMARK  132  A    between atoms: _336  and  _338
REMARK  133  A    between atoms: _338  and  _339
REMARK  134  A    between atoms: _338  and  _341
REMARK  135  A    between atoms: _344  and  _346
REMARK  136  A    between atoms: _346  and  _347
REMARK  137  A    between atoms: _346  and  _349
REMARK  138  A    between atoms: _349  and  _350
REMARK  139  A    between atoms: _353  and  _355
REMARK  140  A    between atoms: _355  and  _356
REMARK  141  A    between atoms: _355  and  _358
REMARK  142  A    between atoms: _358  and  _359
REMARK  143  A    between atoms: _364  and  _366
REMARK  144  A    between atoms: _366  and  _367
REMARK  145  A    between atoms: _366  and  _369
REMARK  146  A    between atoms: _369  and  _370
REMARK  147  A    between atoms: _370  and  _371
REMARK  148  A    between atoms: _374  and  _376
REMARK  149  A    between atoms: _376  and  _377
REMARK  150  A    between atoms: _376  and  _379
REMARK  151  A    between atoms: _379  and  _380
REMARK  152  A    between atoms: _390  and  _392
REMARK  153  A    between atoms: _392  and  _393
REMARK  154  A    between atoms: _392  and  _395
REMARK  155  A    between atoms: _395  and  _396
REMARK  156  A    between atoms: _401  and  _403
REMARK  157  A    between atoms: _403  and  _404
REMARK  158  A    between atoms: _403  and  _406
REMARK  159  A    between atoms: _409  and  _411
REMARK  160  A    between atoms: _411  and  _412
REMARK  161  A    between atoms: _411  and  _414
REMARK  162  A    between atoms: _414  and  _415
REMARK  163  A    between atoms: _419  and  _420
REMARK  164  A    between atoms: _425  and  _427
REMARK  165  A    between atoms: _427  and  _428
REMARK  166  A    between atoms: _427  and  _430
REMARK  167  A    between atoms: _430  and  _431
REMARK  168  A    between atoms: _431  and  _432
REMARK  169  A    between atoms: _437  and  _439
REMARK  170  A    between atoms: _439  and  _440
REMARK  171  A    between atoms: _439  and  _442
REMARK  172  A    between atoms: _442  and  _443
REMARK  173  A    between atoms: _443  and  _444
REMARK  174  A    between atoms: _447  and  _449
REMARK  175  A    between atoms: _449  and  _450
REMARK  176  A    between atoms: _449  and  _452
REMARK  177  A    between atoms: _452  and  _453
REMARK  178  A    between atoms: _455  and  _457
REMARK  179  A    between atoms: _457  and  _458
REMARK  180  A    between atoms: _457  and  _460
REMARK  181  A    between atoms: _460  and  _461
REMARK  182  A    between atoms: _464  and  _466
REMARK  183  A    between atoms: _466  and  _467
REMARK  184  A    between atoms: _466  and  _469
REMARK  185  A    between atoms: _469  and  _470
REMARK  186  A    between atoms: _476  and  _478
REMARK  187  A    between atoms: _478  and  _479
REMARK  188  A    between atoms: _478  and  _481
REMARK  189  A    between atoms: _481  and  _482
REMARK  190  A    between atoms: _482  and  _483
REMARK  191  A    between atoms: _483  and  _484
REMARK  192  A    between atoms: _493  and  _495
REMARK  193  A    between atoms: _495  and  _496
REMARK  194  A    between atoms: _495  and  _498
REMARK  195  A    between atoms: _498  and  _499
REMARK  196  A    between atoms: _505  and  _507
REMARK  197  A    between atoms: _507  and  _508
REMARK  198  A    between atoms: _507  and  _510
REMARK  199  A    between atoms: _510  and  _511
REMARK  200  A    between atoms: _513  and  _515
REMARK  201  A    between atoms: _515  and  _516
REMARK  202  A    between atoms: _515  and  _518
REMARK  203  A    between atoms: _518  and  _519
REMARK  204  A    between atoms: _519  and  _520
REMARK  205  A    between atoms: _523  and  _525
REMARK  206  A    between atoms: _525  and  _526
REMARK  207  A    between atoms: _525  and  _528
REMARK  208  A    between atoms: _528  and  _529
REMARK  209  A    between atoms: _531  and  _533
REMARK  210  A    between atoms: _533  and  _534
REMARK  211  A    between atoms: _533  and  _536
REMARK  212  A    between atoms: _536  and  _537
REMARK  213  A    between atoms: _542  and  _543
REMARK  214  A    between atoms: _545  and  _547
REMARK  215  A    between atoms: _547  and  _548
REMARK  216  A    between atoms: _547  and  _550
REMARK  217  A    between atoms: _550  and  _551
REMARK  218  A    between atoms: _557  and  _559
REMARK  219  A    between atoms: _559  and  _560
REMARK  220  A    between atoms: _559  and  _562
REMARK  221  A    between atoms: _562  and  _563
REMARK  222  A    between atoms: _566  and  _568
REMARK  223  A    between atoms: _568  and  _569
REMARK  224  A    between atoms: _568  and  _571
REMARK  225  A    between atoms: _574  and  _576
REMARK  226  A    between atoms: _576  and  _577
REMARK  227  A    between atoms: _576  and  _579
REMARK  228  A    between atoms: _579  and  _580
REMARK  229  A    between atoms: _585  and  _586
REMARK  230  A    between atoms: _588  and  _590
REMARK  231  A    between atoms: _590  and  _591
REMARK  232  A    between atoms: _593  and  _595
REMARK  233  A    between atoms: _595  and  _596
REMARK  234  A    between atoms: _595  and  _598
REMARK  235  A    between atoms: _601  and  _603
REMARK  236  A    between atoms: _603  and  _604
REMARK  237  A    between atoms: _603  and  _606
REMARK  238  A    between atoms: _606  and  _607
REMARK  239  A    between atoms: _611  and  _612
REMARK  240  A    between atoms: _617  and  _619
REMARK  241  A    between atoms: _619  and  _620
REMARK  242  A    between atoms: _619  and  _622
REMARK  243  A    between atoms: _622  and  _623
REMARK  244  A    between atoms: _626  and  _628
REMARK  245  A    between atoms: _628  and  _629
REMARK  246  A    between atoms: _628  and  _631
REMARK  247  A    between atoms: _631  and  _632
REMARK  248  A    between atoms: _642  and  _644
REMARK  249  A    between atoms: _644  and  _645
REMARK  250  A    between atoms: _644  and  _647
REMARK  251  A    between atoms: _647  and  _648
REMARK  252  A    between atoms: _648  and  _649
REMARK  253  A    between atoms: _652  and  _653
REMARK  254  A    between atoms: _658  and  _660
REMARK  255  A    between atoms: _660  and  _661
REMARK  256  A    between atoms: _660  and  _663
REMARK  257  A    between atoms: _663  and  _664
REMARK  258  A    between atoms: _669  and  _671
REMARK  259  A    between atoms: _671  and  _672
REMARK  260  A    between atoms: _674  and  _676
REMARK  261  A    between atoms: _676  and  _677
REMARK  262  A    between atoms: _676  and  _679
REMARK  263  A    between atoms: _679  and  _680
REMARK  264  A    between atoms: _685  and  _686
REMARK  265  A    between atoms: _688  and  _690
REMARK  266  A    between atoms: _690  and  _691
REMARK  267  A    between atoms: _690  and  _693
REMARK  268  A    between atoms: _693  and  _694
REMARK  269  A    between atoms: _694  and  _695
REMARK  270  A    between atoms: _698  and  _700
REMARK  271  A    between atoms: _700  and  _701
REMARK  272  A    between atoms: _700  and  _703
REMARK  273  A    between atoms: _703  and  _704
REMARK                            x       y       z     vdW  Elec       q    Type
REMARK                         _______ _______ _______ _____ _____    ______ ____
ROOT
ATOM      1  O   HOH     1      33.529  14.725  17.051  0.00  0.00    +0.000 OA
ENDROOT
TORSDOF 0
REMARK  Name = ../refined-set-2016/1q84/1q84_pocket.pdb
REMARK  273 active torsions:
REMARK  status: ('A' for Active; 'I' for Inactive)
REMARK    1  A    between atoms: _1  and  _3
REMARK    2  A    between atoms: _3  and  _4
REMARK    3  A    between atoms: _3  and  _6
REMARK    4  A    between atoms: _6  and  _7
REMARK    5  A    between atoms: _7  and  _8
REMARK    6  A    between atoms: _13  and  _15
REMARK    7  A    between atoms: _15  and  _16
REMARK    8  A    between atoms: _15  and  _18
REMARK    9  A    between atoms: _18  and  _19
REMARK   10  A    between atoms: _24  and  _25
REMARK   11  A    between atoms: _27  and  _29
REMARK   12  A    between atoms: _29  and  _30
REMARK   13  A    between atoms: _29  and  _32
REMARK   14  A    between atoms: _35  and  _37
REMARK   15  A    between atoms: _37  and  _38
REMARK   16  A    between atoms: _37  and  _40
REMARK   17  A    between atoms: _40  and  _41
REMARK   18  A    between atoms: _44  and  _46
REMARK   19  A    between atoms: _46  and  _47
REMARK   20  A    between atoms: _46  and  _49
REMARK   21  A    between atoms: _49  and  _50
REMARK   22  A    between atoms: _53  and  _55
REMARK   23  A    between atoms: _55  and  _56
REMARK   24  A    between atoms: _55  and  _58
REMARK   25  A    between atoms: _58  and  _59
REMARK   26  A    between atoms: _62  and  _64
REMARK   27  A    between atoms: _64  and  _65
REMARK   28  A    between atoms: _64  and  _67
REMARK   29  A    between atoms: _67  and  _68
REMARK   30  A    between atoms: _73  and  _74
REMARK   31  A    between atoms: _76  and  _78
REMARK   32  A    between atoms: _78  and  _79
REMARK   33  A    between atoms: _78  and  _81
REMARK   34  A    between atoms: _81  and  _82
REMARK   35  A    between atoms: _88  and  _90
REMARK   36  A    between atoms: _90  and  _91
REMARK   37  A    between atoms: _90  and  _93
REMARK   38  A    between atoms: _93  and  _94
REMARK   39  A    between atoms: _94  and  _95
REMARK   40  A    between atoms: _98  and  _100
REMARK   41  A    between atoms: _100  and  _101
REMARK   42  A    between atoms: _103  and  _105
REMARK   43  A    between atoms: _105  and  _106
REMARK   44  A    between atoms: _105  and  _108
REMARK   45  A    between atoms: _108  and  _109
REMARK   46  A    between atoms: _112  and  _114
REMARK   47  A    between atoms: _114  and  _115
REMARK   48  A    between atoms: _114  and  _117
REMARK   49  A    between atoms: _117  and  _118
REMARK   50  A    between atoms: _118  and  _119
REMARK   51  A    between atoms: _122  and  _124
REMARK   52  A    between atoms: _124  and  _125
REMARK   53  A    between atoms: _124  and  _127
REMARK   54  A    between atoms: _127  and  _128
REMARK   55  A    between atoms: _128  and  _129
REMARK   56  A    between atoms: _131  and  _133
REMARK   57  A    between atoms: _133  and  _134
REMARK   58  A    between atoms: _133  and  _136
REMARK   59  A    between atoms: _136  and  _137
REMARK   60  A    between atoms: _147  and  _149
REMARK   61  A    between atoms: _149  and  _150
REMARK   62  A    between atoms: _149  and  _152
REMARK   63  A    between atoms: _152  and  _153
REMARK   64  A    between atoms: _158  and  _160
REMARK   65  A    between atoms: _160  and  _161
REMARK   66  A    between atoms: _160  and  _163
REMARK   67  A    between atoms: _163  and  _164
REMARK   68  A    between atoms: _174  and  _176
REMARK   69  A    between atoms: _176  and  _177
REMARK   70  A    between atoms: _176  and  _179
REMARK   71  A    between atoms: _179  and  _180
REMARK   72  A    between atoms: _185  and  _186
REMARK   73  A    between atoms: _188  and  _190
REMARK   74  A    between atoms: _190  and  _191
REMARK   75  A    between atoms: _193  and  _195
REMARK   76  A    between atoms: _195  and  _196
REMARK   77  A    between atoms: _198  and  _200
REMARK   78  A    between atoms: _200  and  _201
REMARK   79  A    between atoms: _203  and  _205
REMARK   80  A    between atoms: _205  and  _206
REMARK   81  A    between atoms: _205  and  _208
REMARK   82  A    between atoms: _208  and  _209
REMARK   83  A    between atoms: _215  and  _217
REMARK   84  A    between atoms: _217  and  _218
REMARK   85  A    between atoms: _217  and  _220
REMARK   86  A    between atoms: _220  and  _221
REMARK   87  A    between atoms: _226  and  _227
REMARK   88  A    between atoms: _229  and  _231
REMARK   89  A    between atoms: _231  and  _232
REMARK   90  A    between atoms: _231  and  _234
REMARK   91  A    between atoms: _234  and  _235
REMARK   92  A    between atoms: _237  and  _239
REMARK   93  A    between atoms: _239  and  _240
REMARK   94  A    between atoms: _242  and  _244
REMARK   95  A    between atoms: _244  and  _245
REMARK   96  A    between atoms: _248  and  _250
REMARK   97  A    between atoms: _250  and  _251
REMARK   98  A    between atoms: _250  and  _253
REMARK   99  A    between atoms: _253  and  _254
REMARK  100  A    between atoms: _257  and  _259
REMARK  101  A    between atoms: _259  and  _260
REMARK  102  A    between atoms: _259  and  _262
REMARK  103  A    between atoms: _265  and  _267
REMARK  104  A    between atoms: _267  and  _268
REMARK  105  A    between atoms: _267  and  _270
REMARK  106  A    between atoms: _270  and  _271
REMARK  107  A    between atoms: _276  and  _277
REMARK  108  A    between atoms: _279  and  _281
REMARK  109  A    between atoms: _281  and  _282
REMARK  110  A    between atoms: _281  and  _284
REMARK  111  A    between atoms: _284  and  _285
REMARK  112  A    between atoms: _290  and  _291
REMARK  113  A    between atoms: _293  and  _295
REMARK  114  A    between atoms: _295  and  _296
REMARK  115  A    between atoms: _295  and  _298
REMARK  116  A    between atoms: _298  and  _299
REMARK  117  A    between atoms: _299  and  _300
REMARK  118  A    between atoms: _303  and  _305
REMARK  119  A    between atoms: _305  and  _306
REMARK  120  A    between atoms: _305  and  _308
REMARK  121  A    between atoms: _308  and  _309
REMARK  122  A    between atoms: _311  and  _313
REMARK  123  A    between atoms: _313  and  _314
REMARK  124  A    between atoms: _317  and  _319
REMARK  125  A    between atoms: _319  and  _320
REMARK  126  A    between atoms: _322  and  _324
REMARK  127  A    between atoms: _324  and  _325
REMARK  128  A    between atoms: _328  and  _330
REMARK  129  A    between atoms: _330  and  _331
REMARK  130  A    between atoms: _330  and  _333
REMARK  131  A    between atoms: _333  and  _334
REMARK  132  A    between atoms: _336  and  _338
REMARK  133  A    between atoms: _338  and  _339
REMARK  134  A    between atoms: _338  and  _341
REMARK  135  A    between atoms: _344  and  _346
REMARK  136  A    between atoms: _346  and  _347
REMARK  137  A    between atoms: _346  and  _349
REMARK  138  A    between atoms: _349  and  _350
REMARK  139  A    between atoms: _353  and  _355
REMARK  140  A    between atoms: _355  and  _356
REMARK  141  A    between atoms: _355  and  _358
REMARK  142  A    between atoms: _358  and  _359
REMARK  143  A    between atoms: _364  and  _366
REMARK  144  A    between atoms: _366  and  _367
REMARK  145  A    between atoms: _366  and  _369
REMARK  146  A    between atoms: _369  and  _370
REMARK  147  A    between atoms: _370  and  _371
REMARK  148  A    between atoms: _374  and  _376
REMARK  149  A    between atoms: _376  and  _377
REMARK  150  A    between atoms: _376  and  _379
REMARK  151  A    between atoms: _379  and  _380
REMARK  152  A    between atoms: _390  and  _392
REMARK  153  A    between atoms: _392  and  _393
REMARK  154  A    between atoms: _392  and  _395
REMARK  155  A    between atoms: _395  and  _396
REMARK  156  A    between atoms: _401  and  _403
REMARK  157  A    between atoms: _403  and  _404
REMARK  158  A    between atoms: _403  and  _406
REMARK  159  A    between atoms: _409  and  _411
REMARK  160  A    between atoms: _411  and  _412
REMARK  161  A    between atoms: _411  and  _414
REMARK  162  A    between atoms: _414  and  _415
REMARK  163  A    between atoms: _419  and  _420
REMARK  164  A    between atoms: _425  and  _427
REMARK  165  A    between atoms: _427  and  _428
REMARK  166  A    between atoms: _427  and  _430
REMARK  167  A    between atoms: _430  and  _431
REMARK  168  A    between atoms: _431  and  _432
REMARK  169  A    between atoms: _437  and  _439
REMARK  170  A    between atoms: _439  and  _440
REMARK  171  A    between atoms: _439  and  _442
REMARK  172  A    between atoms: _442  and  _443
REMARK  173  A    between atoms: _443  and  _444
REMARK  174  A    between atoms: _447  and  _449
REMARK  175  A    between atoms: _449  and  _450
REMARK  176  A    between atoms: _449  and  _452
REMARK  177  A    between atoms: _452  and  _453
REMARK  178  A    between atoms: _455  and  _457
REMARK  179  A    between atoms: _457  and  _458
REMARK  180  A    between atoms: _457  and  _460
REMARK  181  A    between atoms: _460  and  _461
REMARK  182  A    between atoms: _464  and  _466
REMARK  183  A    between atoms: _466  and  _467
REMARK  184  A    between atoms: _466  and  _469
REMARK  185  A    between atoms: _469  and  _470
REMARK  186  A    between atoms: _476  and  _478
REMARK  187  A    between atoms: _478  and  _479
REMARK  188  A    between atoms: _478  and  _481
REMARK  189  A    between atoms: _481  and  _482
REMARK  190  A    between atoms: _482  and  _483
REMARK  191  A    between atoms: _483  and  _484
REMARK  192  A    between atoms: _493  and  _495
REMARK  193  A    between atoms: _495  and  _496
REMARK  194  A    between atoms: _495  and  _498
REMARK  195  A    between atoms: _498  and  _499
REMARK  196  A    between atoms: _505  and  _507
REMARK  197  A    between atoms: _507  and  _508
REMARK  198  A    between atoms: _507  and  _510
REMARK  199  A    between atoms: _510  and  _511
REMARK  200  A    between atoms: _513  and  _515
REMARK  201  A    between atoms: _515  and  _516
REMARK  202  A    between atoms: _515  and  _518
REMARK  203  A    between atoms: _518  and  _519
REMARK  204  A    between atoms: _519  and  _520
REMARK  205  A    between atoms: _523  and  _525
REMARK  206  A    between atoms: _525  and  _526
REMARK  207  A    between atoms: _525  and  _528
REMARK  208  A    between atoms: _528  and  _529
REMARK  209  A    between atoms: _531  and  _533
REMARK  210  A    between atoms: _533  and  _534
REMARK  211  A    between atoms: _533  and  _536
REMARK  212  A    between atoms: _536  and  _537
REMARK  213  A    between atoms: _542  and  _543
REMARK  214  A    between atoms: _545  and  _547
REMARK  215  A    between atoms: _547  and  _548
REMARK  216  A    between atoms: _547  and  _550
REMARK  217  A    between atoms: _550  and  _551
REMARK  218  A    between atoms: _557  and  _559
REMARK  219  A    between atoms: _559  and  _560
REMARK  220  A    between atoms: _559  and  _562
REMARK  221  A    between atoms: _562  and  _563
REMARK  222  A    between atoms: _566  and  _568
REMARK  223  A    between atoms: _568  and  _569
REMARK  224  A    between atoms: _568  and  _571
REMARK  225  A    between atoms: _574  and  _576
REMARK  226  A    between atoms: _576  and  _577
REMARK  227  A    between atoms: _576  and  _579
REMARK  228  A    between atoms: _579  and  _580
REMARK  229  A    between atoms: _585  and  _586
REMARK  230  A    between atoms: _588  and  _590
REMARK  231  A    between atoms: _590  and  _591
REMARK  232  A    between atoms: _593  and  _595
REMARK  233  A    between atoms: _595  and  _596
REMARK  234  A    between atoms: _595  and  _598
REMARK  235  A    between atoms: _601  and  _603
REMARK  236  A    between atoms: _603  and  _604
REMARK  237  A    between atoms: _603  and  _606
REMARK  238  A    between atoms: _606  and  _607
REMARK  239  A    between atoms: _611  and  _612
REMARK  240  A    between atoms: _617  and  _619
REMARK  241  A    between atoms: _619  and  _620
REMARK  242  A    between atoms: _619  and  _622
REMARK  243  A    between atoms: _622  and  _623
REMARK  244  A    between atoms: _626  and  _628
REMARK  245  A    between atoms: _628  and  _629
REMARK  246  A    between atoms: _628  and  _631
REMARK  247  A    between atoms: _631  and  _632
REMARK  248  A    between atoms: _642  and  _644
REMARK  249  A    between atoms: _644  and  _645
REMARK  250  A    between atoms: _644  and  _647
REMARK  251  A    between atoms: _647  and  _648
REMARK  252  A    between atoms: _648  and  _649
REMARK  253  A    between atoms: _652  and  _653
REMARK  254  A    between atoms: _658  and  _660
REMARK  255  A    between atoms: _660  and  _661
REMARK  256  A    between atoms: _660  and  _663
REMARK  257  A    between atoms: _663  and  _664
REMARK  258  A    between atoms: _669  and  _671
REMARK  259  A    between atoms: _671  and  _672
REMARK  260  A    between atoms: _674  and  _676
REMARK  261  A    between atoms: _676  and  _677
REMARK  262  A    between atoms: _676  and  _679
REMARK  263  A    between atoms: _679  and  _680
REMARK  264  A    between atoms: _685  and  _686
REMARK  265  A    between atoms: _688  and  _690
REMARK  266  A    between atoms: _690  and  _691
REMARK  267  A    between atoms: _690  and  _693
REMARK  268  A    between atoms: _693  and  _694
REMARK  269  A    between atoms: _694  and  _695
REMARK  270  A    between atoms: _698  and  _700
REMARK  271  A    between atoms: _700  and  _701
REMARK  272  A    between atoms: _700  and  _703
REMARK  273  A    between atoms: _703  and  _704
REMARK                            x       y       z     vdW  Elec       q    Type
REMARK                         _______ _______ _______ _____ _____    ______ ____
ROOT
ATOM      1  O   HOH     1      30.335  20.645  18.750  0.00  0.00    +0.000 OA
ENDROOT
TORSDOF 0
REMARK  Name = ../refined-set-2016/1q84/1q84_pocket.pdb
REMARK  273 active torsions:
REMARK  status: ('A' for Active; 'I' for Inactive)
REMARK    1  A    between atoms: _1  and  _3
REMARK    2  A    between atoms: _3  and  _4
REMARK    3  A    between atoms: _3  and  _6
REMARK    4  A    between atoms: _6  and  _7
REMARK    5  A    between atoms: _7  and  _8
REMARK    6  A    between atoms: _13  and  _15
REMARK    7  A    between atoms: _15  and  _16
REMARK    8  A    between atoms: _15  and  _18
REMARK    9  A    between atoms: _18  and  _19
REMARK   10  A    between atoms: _24  and  _25
REMARK   11  A    between atoms: _27  and  _29
REMARK   12  A    between atoms: _29  and  _30
REMARK   13  A    between atoms: _29  and  _32
REMARK   14  A    between atoms: _35  and  _37
REMARK   15  A    between atoms: _37  and  _38
REMARK   16  A    between atoms: _37  and  _40
REMARK   17  A    between atoms: _40  and  _41
REMARK   18  A    between atoms: _44  and  _46
REMARK   19  A    between atoms: _46  and  _47
REMARK   20  A    between atoms: _46  and  _49
REMARK   21  A    between atoms: _49  and  _50
REMARK   22  A    between atoms: _53  and  _55
REMARK   23  A    between atoms: _55  and  _56
REMARK   24  A    between atoms: _55  and  _58
REMARK   25  A    between atoms: _58  and  _59
REMARK   26  A    between atoms: _62  and  _64
REMARK   27  A    between atoms: _64  and  _65
REMARK   28  A    between atoms: _64  and  _67
REMARK   29  A    between atoms: _67  and  _68
REMARK   30  A    between atoms: _73  and  _74
REMARK   31  A    between atoms: _76  and  _78
REMARK   32  A    between atoms: _78  and  _79
REMARK   33  A    between atoms: _78  and  _81
REMARK   34  A    between atoms: _81  and  _82
REMARK   35  A    between atoms: _88  and  _90
REMARK   36  A    between atoms: _90  and  _91
REMARK   37  A    between atoms: _90  and  _93
REMARK   38  A    between atoms: _93  and  _94
REMARK   39  A    between atoms: _94  and  _95
REMARK   40  A    between atoms: _98  and  _100
REMARK   41  A    between atoms: _100  and  _101
REMARK   42  A    between atoms: _103  and  _105
REMARK   43  A    between atoms: _105  and  _106
REMARK   44  A    between atoms: _105  and  _108
REMARK   45  A    between atoms: _108  and  _109
REMARK   46  A    between atoms: _112  and  _114
REMARK   47  A    between atoms: _114  and  _115
REMARK   48  A    between atoms: _114  and  _117
REMARK   49  A    between atoms: _117  and  _118
REMARK   50  A    between atoms: _118  and  _119
REMARK   51  A    between atoms: _122  and  _124
REMARK   52  A    between atoms: _124  and  _125
REMARK   53  A    between atoms: _124  and  _127
REMARK   54  A    between atoms: _127  and  _128
REMARK   55  A    between atoms: _128  and  _129
REMARK   56  A    between atoms: _131  and  _133
REMARK   57  A    between atoms: _133  and  _134
REMARK   58  A    between atoms: _133  and  _136
REMARK   59  A    between atoms: _136  and  _137
REMARK   60  A    between atoms: _147  and  _149
REMARK   61  A    between atoms: _149  and  _150
REMARK   62  A    between atoms: _149  and  _152
REMARK   63  A    between atoms: _152  and  _153
REMARK   64  A    between atoms: _158  and  _160
REMARK   65  A    between atoms: _160  and  _161
REMARK   66  A    between atoms: _160  and  _163
REMARK   67  A    between atoms: _163  and  _164
REMARK   68  A    between atoms: _174  and  _176
REMARK   69  A    between atoms: _176  and  _177
REMARK   70  A    between atoms: _176  and  _179
REMARK   71  A    between atoms: _179  and  _180
REMARK   72  A    between atoms: _185  and  _186
REMARK   73  A    between atoms: _188  and  _190
REMARK   74  A    between atoms: _190  and  _191
REMARK   75  A    between atoms: _193  and  _195
REMARK   76  A    between atoms: _195  and  _196
REMARK   77  A    between atoms: _198  and  _200
REMARK   78  A    between atoms: _200  and  _201
REMARK   79  A    between atoms: _203  and  _205
REMARK   80  A    between atoms: _205  and  _206
REMARK   81  A    between atoms: _205  and  _208
REMARK   82  A    between atoms: _208  and  _209
REMARK   83  A    between atoms: _215  and  _217
REMARK   84  A    between atoms: _217  and  _218
REMARK   85  A    between atoms: _217  and  _220
REMARK   86  A    between atoms: _220  and  _221
REMARK   87  A    between atoms: _226  and  _227
REMARK   88  A    between atoms: _229  and  _231
REMARK   89  A    between atoms: _231  and  _232
REMARK   90  A    between atoms: _231  and  _234
REMARK   91  A    between atoms: _234  and  _235
REMARK   92  A    between atoms: _237  and  _239
REMARK   93  A    between atoms: _239  and  _240
REMARK   94  A    between atoms: _242  and  _244
REMARK   95  A    between atoms: _244  and  _245
REMARK   96  A    between atoms: _248  and  _250
REMARK   97  A    between atoms: _250  and  _251
REMARK   98  A    between atoms: _250  and  _253
REMARK   99  A    between atoms: _253  and  _254
REMARK  100  A    between atoms: _257  and  _259
REMARK  101  A    between atoms: _259  and  _260
REMARK  102  A    between atoms: _259  and  _262
REMARK  103  A    between atoms: _265  and  _267
REMARK  104  A    between atoms: _267  and  _268
REMARK  105  A    between atoms: _267  and  _270
REMARK  106  A    between atoms: _270  and  _271
REMARK  107  A    between atoms: _276  and  _277
REMARK  108  A    between atoms: _279  and  _281
REMARK  109  A    between atoms: _281  and  _282
REMARK  110  A    between atoms: _281  and  _284
REMARK  111  A    between atoms: _284  and  _285
REMARK  112  A    between atoms: _290  and  _291
REMARK  113  A    between atoms: _293  and  _295
REMARK  114  A    between atoms: _295  and  _296
REMARK  115  A    between atoms: _295  and  _298
REMARK  116  A    between atoms: _298  and  _299
REMARK  117  A    between atoms: _299  and  _300
REMARK  118  A    between atoms: _303  and  _305
REMARK  119  A    between atoms: _305  and  _306
REMARK  120  A    between atoms: _305  and  _308
REMARK  121  A    between atoms: _308  and  _309
REMARK  122  A    between atoms: _311  and  _313
REMARK  123  A    between atoms: _313  and  _314
REMARK  124  A    between atoms: _317  and  _319
REMARK  125  A    between atoms: _319  and  _320
REMARK  126  A    between atoms: _322  and  _324
REMARK  127  A    between atoms: _324  and  _325
REMARK  128  A    between atoms: _328  and  _330
REMARK  129  A    between atoms: _330  and  _331
REMARK  130  A    between atoms: _330  and  _333
REMARK  131  A    between atoms: _333  and  _334
REMARK  132  A    between atoms: _336  and  _338
REMARK  133  A    between atoms: _338  and  _339
REMARK  134  A    between atoms: _338  and  _341
REMARK  135  A    between atoms: _344  and  _346
REMARK  136  A    between atoms: _346  and  _347
REMARK  137  A    between atoms: _346  and  _349
REMARK  138  A    between atoms: _349  and  _350
REMARK  139  A    between atoms: _353  and  _355
REMARK  140  A    between atoms: _355  and  _356
REMARK  141  A    between atoms: _355  and  _358
REMARK  142  A    between atoms: _358  and  _359
REMARK  143  A    between atoms: _364  and  _366
REMARK  144  A    between atoms: _366  and  _367
REMARK  145  A    between atoms: _366  and  _369
REMARK  146  A    between atoms: _369  and  _370
REMARK  147  A    between atoms: _370  and  _371
REMARK  148  A    between atoms: _374  and  _376
REMARK  149  A    between atoms: _376  and  _377
REMARK  150  A    between atoms: _376  and  _379
REMARK  151  A    between atoms: _379  and  _380
REMARK  152  A    between atoms: _390  and  _392
REMARK  153  A    between atoms: _392  and  _393
REMARK  154  A    between atoms: _392  and  _395
REMARK  155  A    between atoms: _395  and  _396
REMARK  156  A    between atoms: _401  and  _403
REMARK  157  A    between atoms: _403  and  _404
REMARK  158  A    between atoms: _403  and  _406
REMARK  159  A    between atoms: _409  and  _411
REMARK  160  A    between atoms: _411  and  _412
REMARK  161  A    between atoms: _411  and  _414
REMARK  162  A    between atoms: _414  and  _415
REMARK  163  A    between atoms: _419  and  _420
REMARK  164  A    between atoms: _425  and  _427
REMARK  165  A    between atoms: _427  and  _428
REMARK  166  A    between atoms: _427  and  _430
REMARK  167  A    between atoms: _430  and  _431
REMARK  168  A    between atoms: _431  and  _432
REMARK  169  A    between atoms: _437  and  _439
REMARK  170  A    between atoms: _439  and  _440
REMARK  171  A    between atoms: _439  and  _442
REMARK  172  A    between atoms: _442  and  _443
REMARK  173  A    between atoms: _443  and  _444
REMARK  174  A    between atoms: _447  and  _449
REMARK  175  A    between atoms: _449  and  _450
REMARK  176  A    between atoms: _449  and  _452
REMARK  177  A    between atoms: _452  and  _453
REMARK  178  A    between atoms: _455  and  _457
REMARK  179  A    between atoms: _457  and  _458
REMARK  180  A    between atoms: _457  and  _460
REMARK  181  A    between atoms: _460  and  _461
REMARK  182  A    between atoms: _464  and  _466
REMARK  183  A    between atoms: _466  and  _467
REMARK  184  A    between atoms: _466  and  _469
REMARK  185  A    between atoms: _469  and  _470
REMARK  186  A    between atoms: _476  and  _478
REMARK  187  A    between atoms: _478  and  _479
REMARK  188  A    between atoms: _478  and  _481
REMARK  189  A    between atoms: _481  and  _482
REMARK  190  A    between atoms: _482  and  _483
REMARK  191  A    between atoms: _483  and  _484
REMARK  192  A    between atoms: _493  and  _495
REMARK  193  A    between atoms: _495  and  _496
REMARK  194  A    between atoms: _495  and  _498
REMARK  195  A    between atoms: _498  and  _499
REMARK  196  A    between atoms: _505  and  _507
REMARK  197  A    between atoms: _507  and  _508
REMARK  198  A    between atoms: _507  and  _510
REMARK  199  A    between atoms: _510  and  _511
REMARK  200  A    between atoms: _513  and  _515
REMARK  201  A    between atoms: _515  and  _516
REMARK  202  A    between atoms: _515  and  _518
REMARK  203  A    between atoms: _518  and  _519
REMARK  204  A    between atoms: _519  and  _520
REMARK  205  A    between atoms: _523  and  _525
REMARK  206  A    between atoms: _525  and  _526
REMARK  207  A    between atoms: _525  and  _528
REMARK  208  A    between atoms: _528  and  _529
REMARK  209  A    between atoms: _531  and  _533
REMARK  210  A    between atoms: _533  and  _534
REMARK  211  A    between atoms: _533  and  _536
REMARK  212  A    between atoms: _536  and  _537
REMARK  213  A    between atoms: _542  and  _543
REMARK  214  A    between atoms: _545  and  _547
REMARK  215  A    between atoms: _547  and  _548
REMARK  216  A    between atoms: _547  and  _550
REMARK  217  A    between atoms: _550  and  _551
REMARK  218  A    between atoms: _557  and  _559
REMARK  219  A    between atoms: _559  and  _560
REMARK  220  A    between atoms: _559  and  _562
REMARK  221  A    between atoms: _562  and  _563
REMARK  222  A    between atoms: _566  and  _568
REMARK  223  A    between atoms: _568  and  _569
REMARK  224  A    between atoms: _568  and  _571
REMARK  225  A    between atoms: _574  and  _576
REMARK  226  A    between atoms: _576  and  _577
REMARK  227  A    between atoms: _576  and  _579
REMARK  228  A    between atoms: _579  and  _580
REMARK  229  A    between atoms: _585  and  _586
REMARK  230  A    between atoms: _588  and  _590
REMARK  231  A    between atoms: _590  and  _591
REMARK  232  A    between atoms: _593  and  _595
REMARK  233  A    between atoms: _595  and  _596
REMARK  234  A    between atoms: _595  and  _598
REMARK  235  A    between atoms: _601  and  _603
REMARK  236  A    between atoms: _603  and  _604
REMARK  237  A    between atoms: _603  and  _606
REMARK  238  A    between atoms: _606  and  _607
REMARK  239  A    between atoms: _611  and  _612
REMARK  240  A    between atoms: _617  and  _619
REMARK  241  A    between atoms: _619  and  _620
REMARK  242  A    between atoms: _619  and  _622
REMARK  243  A    between atoms: _622  and  _623
REMARK  244  A    between atoms: _626  and  _628
REMARK  245  A    between atoms: _628  and  _629
REMARK  246  A    between atoms: _628  and  _631
REMARK  247  A    between atoms: _631  and  _632
REMARK  248  A    between atoms: _642  and  _644
REMARK  249  A    between atoms: _644  and  _645
REMARK  250  A    between atoms: _644  and  _647
REMARK  251  A    between atoms: _647  and  _648
REMARK  252  A    between atoms: _648  and  _649
REMARK  253  A    between atoms: _652  and  _653
REMARK  254  A    between atoms: _658  and  _660
REMARK  255  A    between atoms: _660  and  _661
REMARK  256  A    between atoms: _660  and  _663
REMARK  257  A    between atoms: _663  and  _664
REMARK  258  A    between atoms: _669  and  _671
REMARK  259  A    between atoms: _671  and  _672
REMARK  260  A    between atoms: _674  and  _676
REMARK  261  A    between atoms: _676  and  _677
REMARK  262  A    between atoms: _676  and  _679
REMARK  263  A    between atoms: _679  and  _680
REMARK  264  A    between atoms: _685  and  _686
REMARK  265  A    between atoms: _688  and  _690
REMARK  266  A    between atoms: _690  and  _691
REMARK  267  A    between atoms: _690  and  _693
REMARK  268  A    between atoms: _693  and  _694
REMARK  269  A    between atoms: _694  and  _695
REMARK  270  A    between atoms: _698  and  _700
REMARK  271  A    between atoms: _700  and  _701
REMARK  272  A    between atoms: _700  and  _703
REMARK  273  A    between atoms: _703  and  _704
REMARK                            x       y       z     vdW  Elec       q    Type
REMARK                         _______ _______ _______ _____ _____    ______ ____
ROOT
ATOM      1  O   HOH     1      41.143  27.398  17.056  0.00  0.00    +0.000 OA
ENDROOT
TORSDOF 0
REMARK  Name = ../refined-set-2016/1q84/1q84_pocket.pdb
REMARK  273 active torsions:
REMARK  status: ('A' for Active; 'I' for Inactive)
REMARK    1  A    between atoms: _1  and  _3
REMARK    2  A    between atoms: _3  and  _4
REMARK    3  A    between atoms: _3  and  _6
REMARK    4  A    between atoms: _6  and  _7
REMARK    5  A    between atoms: _7  and  _8
REMARK    6  A    between atoms: _13  and  _15
REMARK    7  A    between atoms: _15  and  _16
REMARK    8  A    between atoms: _15  and  _18
REMARK    9  A    between atoms: _18  and  _19
REMARK   10  A    between atoms: _24  and  _25
REMARK   11  A    between atoms: _27  and  _29
REMARK   12  A    between atoms: _29  and  _30
REMARK   13  A    between atoms: _29  and  _32
REMARK   14  A    between atoms: _35  and  _37
REMARK   15  A    between atoms: _37  and  _38
REMARK   16  A    between atoms: _37  and  _40
REMARK   17  A    between atoms: _40  and  _41
REMARK   18  A    between atoms: _44  and  _46
REMARK   19  A    between atoms: _46  and  _47
REMARK   20  A    between atoms: _46  and  _49
REMARK   21  A    between atoms: _49  and  _50
REMARK   22  A    between atoms: _53  and  _55
REMARK   23  A    between atoms: _55  and  _56
REMARK   24  A    between atoms: _55  and  _58
REMARK   25  A    between atoms: _58  and  _59
REMARK   26  A    between atoms: _62  and  _64
REMARK   27  A    between atoms: _64  and  _65
REMARK   28  A    between atoms: _64  and  _67
REMARK   29  A    between atoms: _67  and  _68
REMARK   30  A    between atoms: _73  and  _74
REMARK   31  A    between atoms: _76  and  _78
REMARK   32  A    between atoms: _78  and  _79
REMARK   33  A    between atoms: _78  and  _81
REMARK   34  A    between atoms: _81  and  _82
REMARK   35  A    between atoms: _88  and  _90
REMARK   36  A    between atoms: _90  and  _91
REMARK   37  A    between atoms: _90  and  _93
REMARK   38  A    between atoms: _93  and  _94
REMARK   39  A    between atoms: _94  and  _95
REMARK   40  A    between atoms: _98  and  _100
REMARK   41  A    between atoms: _100  and  _101
REMARK   42  A    between atoms: _103  and  _105
REMARK   43  A    between atoms: _105  and  _106
REMARK   44  A    between atoms: _105  and  _108
REMARK   45  A    between atoms: _108  and  _109
REMARK   46  A    between atoms: _112  and  _114
REMARK   47  A    between atoms: _114  and  _115
REMARK   48  A    between atoms: _114  and  _117
REMARK   49  A    between atoms: _117  and  _118
REMARK   50  A    between atoms: _118  and  _119
REMARK   51  A    between atoms: _122  and  _124
REMARK   52  A    between atoms: _124  and  _125
REMARK   53  A    between atoms: _124  and  _127
REMARK   54  A    between atoms: _127  and  _128
REMARK   55  A    between atoms: _128  and  _129
REMARK   56  A    between atoms: _131  and  _133
REMARK   57  A    between atoms: _133  and  _134
REMARK   58  A    between atoms: _133  and  _136
REMARK   59  A    between atoms: _136  and  _137
REMARK   60  A    between atoms: _147  and  _149
REMARK   61  A    between atoms: _149  and  _150
REMARK   62  A    between atoms: _149  and  _152
REMARK   63  A    between atoms: _152  and  _153
REMARK   64  A    between atoms: _158  and  _160
REMARK   65  A    between atoms: _160  and  _161
REMARK   66  A    between atoms: _160  and  _163
REMARK   67  A    between atoms: _163  and  _164
REMARK   68  A    between atoms: _174  and  _176
REMARK   69  A    between atoms: _176  and  _177
REMARK   70  A    between atoms: _176  and  _179
REMARK   71  A    between atoms: _179  and  _180
REMARK   72  A    between atoms: _185  and  _186
REMARK   73  A    between atoms: _188  and  _190
REMARK   74  A    between atoms: _190  and  _191
REMARK   75  A    between atoms: _193  and  _195
REMARK   76  A    between atoms: _195  and  _196
REMARK   77  A    between atoms: _198  and  _200
REMARK   78  A    between atoms: _200  and  _201
REMARK   79  A    between atoms: _203  and  _205
REMARK   80  A    between atoms: _205  and  _206
REMARK   81  A    between atoms: _205  and  _208
REMARK   82  A    between atoms: _208  and  _209
REMARK   83  A    between atoms: _215  and  _217
REMARK   84  A    between atoms: _217  and  _218
REMARK   85  A    between atoms: _217  and  _220
REMARK   86  A    between atoms: _220  and  _221
REMARK   87  A    between atoms: _226  and  _227
REMARK   88  A    between atoms: _229  and  _231
REMARK   89  A    between atoms: _231  and  _232
REMARK   90  A    between atoms: _231  and  _234
REMARK   91  A    between atoms: _234  and  _235
REMARK   92  A    between atoms: _237  and  _239
REMARK   93  A    between atoms: _239  and  _240
REMARK   94  A    between atoms: _242  and  _244
REMARK   95  A    between atoms: _244  and  _245
REMARK   96  A    between atoms: _248  and  _250
REMARK   97  A    between atoms: _250  and  _251
REMARK   98  A    between atoms: _250  and  _253
REMARK   99  A    between atoms: _253  and  _254
REMARK  100  A    between atoms: _257  and  _259
REMARK  101  A    between atoms: _259  and  _260
REMARK  102  A    between atoms: _259  and  _262
REMARK  103  A    between atoms: _265  and  _267
REMARK  104  A    between atoms: _267  and  _268
REMARK  105  A    between atoms: _267  and  _270
REMARK  106  A    between atoms: _270  and  _271
REMARK  107  A    between atoms: _276  and  _277
REMARK  108  A    between atoms: _279  and  _281
REMARK  109  A    between atoms: _281  and  _282
REMARK  110  A    between atoms: _281  and  _284
REMARK  111  A    between atoms: _284  and  _285
REMARK  112  A    between atoms: _290  and  _291
REMARK  113  A    between atoms: _293  and  _295
REMARK  114  A    between atoms: _295  and  _296
REMARK  115  A    between atoms: _295  and  _298
REMARK  116  A    between atoms: _298  and  _299
REMARK  117  A    between atoms: _299  and  _300
REMARK  118  A    between atoms: _303  and  _305
REMARK  119  A    between atoms: _305  and  _306
REMARK  120  A    between atoms: _305  and  _308
REMARK  121  A    between atoms: _308  and  _309
REMARK  122  A    between atoms: _311  and  _313
REMARK  123  A    between atoms: _313  and  _314
REMARK  124  A    between atoms: _317  and  _319
REMARK  125  A    between atoms: _319  and  _320
REMARK  126  A    between atoms: _322  and  _324
REMARK  127  A    between atoms: _324  and  _325
REMARK  128  A    between atoms: _328  and  _330
REMARK  129  A    between atoms: _330  and  _331
REMARK  130  A    between atoms: _330  and  _333
REMARK  131  A    between atoms: _333  and  _334
REMARK  132  A    between atoms: _336  and  _338
REMARK  133  A    between atoms: _338  and  _339
REMARK  134  A    between atoms: _338  and  _341
REMARK  135  A    between atoms: _344  and  _346
REMARK  136  A    between atoms: _346  and  _347
REMARK  137  A    between atoms: _346  and  _349
REMARK  138  A    between atoms: _349  and  _350
REMARK  139  A    between atoms: _353  and  _355
REMARK  140  A    between atoms: _355  and  _356
REMARK  141  A    between atoms: _355  and  _358
REMARK  142  A    between atoms: _358  and  _359
REMARK  143  A    between atoms: _364  and  _366
REMARK  144  A    between atoms: _366  and  _367
REMARK  145  A    between atoms: _366  and  _369
REMARK  146  A    between atoms: _369  and  _370
REMARK  147  A    between atoms: _370  and  _371
REMARK  148  A    between atoms: _374  and  _376
REMARK  149  A    between atoms: _376  and  _377
REMARK  150  A    between atoms: _376  and  _379
REMARK  151  A    between atoms: _379  and  _380
REMARK  152  A    between atoms: _390  and  _392
REMARK  153  A    between atoms: _392  and  _393
REMARK  154  A    between atoms: _392  and  _395
REMARK  155  A    between atoms: _395  and  _396
REMARK  156  A    between atoms: _401  and  _403
REMARK  157  A    between atoms: _403  and  _404
REMARK  158  A    between atoms: _403  and  _406
REMARK  159  A    between atoms: _409  and  _411
REMARK  160  A    between atoms: _411  and  _412
REMARK  161  A    between atoms: _411  and  _414
REMARK  162  A    between atoms: _414  and  _415
REMARK  163  A    between atoms: _419  and  _420
REMARK  164  A    between atoms: _425  and  _427
REMARK  165  A    between atoms: _427  and  _428
REMARK  166  A    between atoms: _427  and  _430
REMARK  167  A    between atoms: _430  and  _431
REMARK  168  A    between atoms: _431  and  _432
REMARK  169  A    between atoms: _437  and  _439
REMARK  170  A    between atoms: _439  and  _440
REMARK  171  A    between atoms: _439  and  _442
REMARK  172  A    between atoms: _442  and  _443
REMARK  173  A    between atoms: _443  and  _444
REMARK  174  A    between atoms: _447  and  _449
REMARK  175  A    between atoms: _449  and  _450
REMARK  176  A    between atoms: _449  and  _452
REMARK  177  A    between atoms: _452  and  _453
REMARK  178  A    between atoms: _455  and  _457
REMARK  179  A    between atoms: _457  and  _458
REMARK  180  A    between atoms: _457  and  _460
REMARK  181  A    between atoms: _460  and  _461
REMARK  182  A    between atoms: _464  and  _466
REMARK  183  A    between atoms: _466  and  _467
REMARK  184  A    between atoms: _466  and  _469
REMARK  185  A    between atoms: _469  and  _470
REMARK  186  A    between atoms: _476  and  _478
REMARK  187  A    between atoms: _478  and  _479
REMARK  188  A    between atoms: _478  and  _481
REMARK  189  A    between atoms: _481  and  _482
REMARK  190  A    between atoms: _482  and  _483
REMARK  191  A    between atoms: _483  and  _484
REMARK  192  A    between atoms: _493  and  _495
REMARK  193  A    between atoms: _495  and  _496
REMARK  194  A    between atoms: _495  and  _498
REMARK  195  A    between atoms: _498  and  _499
REMARK  196  A    between atoms: _505  and  _507
REMARK  197  A    between atoms: _507  and  _508
REMARK  198  A    between atoms: _507  and  _510
REMARK  199  A    between atoms: _510  and  _511
REMARK  200  A    between atoms: _513  and  _515
REMARK  201  A    between atoms: _515  and  _516
REMARK  202  A    between atoms: _515  and  _518
REMARK  203  A    between atoms: _518  and  _519
REMARK  204  A    between atoms: _519  and  _520
REMARK  205  A    between atoms: _523  and  _525
REMARK  206  A    between atoms: _525  and  _526
REMARK  207  A    between atoms: _525  and  _528
REMARK  208  A    between atoms: _528  and  _529
REMARK  209  A    between atoms: _531  and  _533
REMARK  210  A    between atoms: _533  and  _534
REMARK  211  A    between atoms: _533  and  _536
REMARK  212  A    between atoms: _536  and  _537
REMARK  213  A    between atoms: _542  and  _543
REMARK  214  A    between atoms: _545  and  _547
REMARK  215  A    between atoms: _547  and  _548
REMARK  216  A    between atoms: _547  and  _550
REMARK  217  A    between atoms: _550  and  _551
REMARK  218  A    between atoms: _557  and  _559
REMARK  219  A    between atoms: _559  and  _560
REMARK  220  A    between atoms: _559  and  _562
REMARK  221  A    between atoms: _562  and  _563
REMARK  222  A    between atoms: _566  and  _568
REMARK  223  A    between atoms: _568  and  _569
REMARK  224  A    between atoms: _568  and  _571
REMARK  225  A    between atoms: _574  and  _576
REMARK  226  A    between atoms: _576  and  _577
REMARK  227  A    between atoms: _576  and  _579
REMARK  228  A    between atoms: _579  and  _580
REMARK  229  A    between atoms: _585  and  _586
REMARK  230  A    between atoms: _588  and  _590
REMARK  231  A    between atoms: _590  and  _591
REMARK  232  A    between atoms: _593  and  _595
REMARK  233  A    between atoms: _595  and  _596
REMARK  234  A    between atoms: _595  and  _598
REMARK  235  A    between atoms: _601  and  _603
REMARK  236  A    between atoms: _603  and  _604
REMARK  237  A    between atoms: _603  and  _606
REMARK  238  A    between atoms: _606  and  _607
REMARK  239  A    between atoms: _611  and  _612
REMARK  240  A    between atoms: _617  and  _619
REMARK  241  A    between atoms: _619  and  _620
REMARK  242  A    between atoms: _619  and  _622
REMARK  243  A    between atoms: _622  and  _623
REMARK  244  A    between atoms: _626  and  _628
REMARK  245  A    between atoms: _628  and  _629
REMARK  246  A    between atoms: _628  and  _631
REMARK  247  A    between atoms: _631  and  _632
REMARK  248  A    between atoms: _642  and  _644
REMARK  249  A    between atoms: _644  and  _645
REMARK  250  A    between atoms: _644  and  _647
REMARK  251  A    between atoms: _647  and  _648
REMARK  252  A    between atoms: _648  and  _649
REMARK  253  A    between atoms: _652  and  _653
REMARK  254  A    between atoms: _658  and  _660
REMARK  255  A    between atoms: _660  and  _661
REMARK  256  A    between atoms: _660  and  _663
REMARK  257  A    between atoms: _663  and  _664
REMARK  258  A    between atoms: _669  and  _671
REMARK  259  A    between atoms: _671  and  _672
REMARK  260  A    between atoms: _674  and  _676
REMARK  261  A    between atoms: _676  and  _677
REMARK  262  A    between atoms: _676  and  _679
REMARK  263  A    between atoms: _679  and  _680
REMARK  264  A    between atoms: _685  and  _686
REMARK  265  A    between atoms: _688  and  _690
REMARK  266  A    between atoms: _690  and  _691
REMARK  267  A    between atoms: _690  and  _693
REMARK  268  A    between atoms: _693  and  _694
REMARK  269  A    between atoms: _694  and  _695
REMARK  270  A    between atoms: _698  and  _700
REMARK  271  A    between atoms: _700  and  _701
REMARK  272  A    between atoms: _700  and  _703
REMARK  273  A    between atoms: _703  and  _704
REMARK                            x       y       z     vdW  Elec       q    Type
REMARK                         _______ _______ _______ _____ _____    ______ ____
ROOT
ATOM      1  O   HOH     1      39.044  16.210   0.986  0.00  0.00    +0.000 OA
ENDROOT
TORSDOF 0
REMARK  Name = ../refined-set-2016/1q84/1q84_pocket.pdb
REMARK  273 active torsions:
REMARK  status: ('A' for Active; 'I' for Inactive)
REMARK    1  A    between atoms: _1  and  _3
REMARK    2  A    between atoms: _3  and  _4
REMARK    3  A    between atoms: _3  and  _6
REMARK    4  A    between atoms: _6  and  _7
REMARK    5  A    between atoms: _7  and  _8
REMARK    6  A    between atoms: _13  and  _15
REMARK    7  A    between atoms: _15  and  _16
REMARK    8  A    between atoms: _15  and  _18
REMARK    9  A    between atoms: _18  and  _19
REMARK   10  A    between atoms: _24  and  _25
REMARK   11  A    between atoms: _27  and  _29
REMARK   12  A    between atoms: _29  and  _30
REMARK   13  A    between atoms: _29  and  _32
REMARK   14  A    between atoms: _35  and  _37
REMARK   15  A    between atoms: _37  and  _38
REMARK   16  A    between atoms: _37  and  _40
REMARK   17  A    between atoms: _40  and  _41
REMARK   18  A    between atoms: _44  and  _46
REMARK   19  A    between atoms: _46  and  _47
REMARK   20  A    between atoms: _46  and  _49
REMARK   21  A    between atoms: _49  and  _50
REMARK   22  A    between atoms: _53  and  _55
REMARK   23  A    between atoms: _55  and  _56
REMARK   24  A    between atoms: _55  and  _58
REMARK   25  A    between atoms: _58  and  _59
REMARK   26  A    between atoms: _62  and  _64
REMARK   27  A    between atoms: _64  and  _65
REMARK   28  A    between atoms: _64  and  _67
REMARK   29  A    between atoms: _67  and  _68
REMARK   30  A    between atoms: _73  and  _74
REMARK   31  A    between atoms: _76  and  _78
REMARK   32  A    between atoms: _78  and  _79
REMARK   33  A    between atoms: _78  and  _81
REMARK   34  A    between atoms: _81  and  _82
REMARK   35  A    between atoms: _88  and  _90
REMARK   36  A    between atoms: _90  and  _91
REMARK   37  A    between atoms: _90  and  _93
REMARK   38  A    between atoms: _93  and  _94
REMARK   39  A    between atoms: _94  and  _95
REMARK   40  A    between atoms: _98  and  _100
REMARK   41  A    between atoms: _100  and  _101
REMARK   42  A    between atoms: _103  and  _105
REMARK   43  A    between atoms: _105  and  _106
REMARK   44  A    between atoms: _105  and  _108
REMARK   45  A    between atoms: _108  and  _109
REMARK   46  A    between atoms: _112  and  _114
REMARK   47  A    between atoms: _114  and  _115
REMARK   48  A    between atoms: _114  and  _117
REMARK   49  A    between atoms: _117  and  _118
REMARK   50  A    between atoms: _118  and  _119
REMARK   51  A    between atoms: _122  and  _124
REMARK   52  A    between atoms: _124  and  _125
REMARK   53  A    between atoms: _124  and  _127
REMARK   54  A    between atoms: _127  and  _128
REMARK   55  A    between atoms: _128  and  _129
REMARK   56  A    between atoms: _131  and  _133
REMARK   57  A    between atoms: _133  and  _134
REMARK   58  A    between atoms: _133  and  _136
REMARK   59  A    between atoms: _136  and  _137
REMARK   60  A    between atoms: _147  and  _149
REMARK   61  A    between atoms: _149  and  _150
REMARK   62  A    between atoms: _149  and  _152
REMARK   63  A    between atoms: _152  and  _153
REMARK   64  A    between atoms: _158  and  _160
REMARK   65  A    between atoms: _160  and  _161
REMARK   66  A    between atoms: _160  and  _163
REMARK   67  A    between atoms: _163  and  _164
REMARK   68  A    between atoms: _174  and  _176
REMARK   69  A    between atoms: _176  and  _177
REMARK   70  A    between atoms: _176  and  _179
REMARK   71  A    between atoms: _179  and  _180
REMARK   72  A    between atoms: _185  and  _186
REMARK   73  A    between atoms: _188  and  _190
REMARK   74  A    between atoms: _190  and  _191
REMARK   75  A    between atoms: _193  and  _195
REMARK   76  A    between atoms: _195  and  _196
REMARK   77  A    between atoms: _198  and  _200
REMARK   78  A    between atoms: _200  and  _201
REMARK   79  A    between atoms: _203  and  _205
REMARK   80  A    between atoms: _205  and  _206
REMARK   81  A    between atoms: _205  and  _208
REMARK   82  A    between atoms: _208  and  _209
REMARK   83  A    between atoms: _215  and  _217
REMARK   84  A    between atoms: _217  and  _218
REMARK   85  A    between atoms: _217  and  _220
REMARK   86  A    between atoms: _220  and  _221
REMARK   87  A    between atoms: _226  and  _227
REMARK   88  A    between atoms: _229  and  _231
REMARK   89  A    between atoms: _231  and  _232
REMARK   90  A    between atoms: _231  and  _234
REMARK   91  A    between atoms: _234  and  _235
REMARK   92  A    between atoms: _237  and  _239
REMARK   93  A    between atoms: _239  and  _240
REMARK   94  A    between atoms: _242  and  _244
REMARK   95  A    between atoms: _244  and  _245
REMARK   96  A    between atoms: _248  and  _250
REMARK   97  A    between atoms: _250  and  _251
REMARK   98  A    between atoms: _250  and  _253
REMARK   99  A    between atoms: _253  and  _254
REMARK  100  A    between atoms: _257  and  _259
REMARK  101  A    between atoms: _259  and  _260
REMARK  102  A    between atoms: _259  and  _262
REMARK  103  A    between atoms: _265  and  _267
REMARK  104  A    between atoms: _267  and  _268
REMARK  105  A    between atoms: _267  and  _270
REMARK  106  A    between atoms: _270  and  _271
REMARK  107  A    between atoms: _276  and  _277
REMARK  108  A    between atoms: _279  and  _281
REMARK  109  A    between atoms: _281  and  _282
REMARK  110  A    between atoms: _281  and  _284
REMARK  111  A    between atoms: _284  and  _285
REMARK  112  A    between atoms: _290  and  _291
REMARK  113  A    between atoms: _293  and  _295
REMARK  114  A    between atoms: _295  and  _296
REMARK  115  A    between atoms: _295  and  _298
REMARK  116  A    between atoms: _298  and  _299
REMARK  117  A    between atoms: _299  and  _300
REMARK  118  A    between atoms: _303  and  _305
REMARK  119  A    between atoms: _305  and  _306
REMARK  120  A    between atoms: _305  and  _308
REMARK  121  A    between atoms: _308  and  _309
REMARK  122  A    between atoms: _311  and  _313
REMARK  123  A    between atoms: _313  and  _314
REMARK  124  A    between atoms: _317  and  _319
REMARK  125  A    between atoms: _319  and  _320
REMARK  126  A    between atoms: _322  and  _324
REMARK  127  A    between atoms: _324  and  _325
REMARK  128  A    between atoms: _328  and  _330
REMARK  129  A    between atoms: _330  and  _331
REMARK  130  A    between atoms: _330  and  _333
REMARK  131  A    between atoms: _333  and  _334
REMARK  132  A    between atoms: _336  and  _338
REMARK  133  A    between atoms: _338  and  _339
REMARK  134  A    between atoms: _338  and  _341
REMARK  135  A    between atoms: _344  and  _346
REMARK  136  A    between atoms: _346  and  _347
REMARK  137  A    between atoms: _346  and  _349
REMARK  138  A    between atoms: _349  and  _350
REMARK  139  A    between atoms: _353  and  _355
REMARK  140  A    between atoms: _355  and  _356
REMARK  141  A    between atoms: _355  and  _358
REMARK  142  A    between atoms: _358  and  _359
REMARK  143  A    between atoms: _364  and  _366
REMARK  144  A    between atoms: _366  and  _367
REMARK  145  A    between atoms: _366  and  _369
REMARK  146  A    between atoms: _369  and  _370
REMARK  147  A    between atoms: _370  and  _371
REMARK  148  A    between atoms: _374  and  _376
REMARK  149  A    between atoms: _376  and  _377
REMARK  150  A    between atoms: _376  and  _379
REMARK  151  A    between atoms: _379  and  _380
REMARK  152  A    between atoms: _390  and  _392
REMARK  153  A    between atoms: _392  and  _393
REMARK  154  A    between atoms: _392  and  _395
REMARK  155  A    between atoms: _395  and  _396
REMARK  156  A    between atoms: _401  and  _403
REMARK  157  A    between atoms: _403  and  _404
REMARK  158  A    between atoms: _403  and  _406
REMARK  159  A    between atoms: _409  and  _411
REMARK  160  A    between atoms: _411  and  _412
REMARK  161  A    between atoms: _411  and  _414
REMARK  162  A    between atoms: _414  and  _415
REMARK  163  A    between atoms: _419  and  _420
REMARK  164  A    between atoms: _425  and  _427
REMARK  165  A    between atoms: _427  and  _428
REMARK  166  A    between atoms: _427  and  _430
REMARK  167  A    between atoms: _430  and  _431
REMARK  168  A    between atoms: _431  and  _432
REMARK  169  A    between atoms: _437  and  _439
REMARK  170  A    between atoms: _439  and  _440
REMARK  171  A    between atoms: _439  and  _442
REMARK  172  A    between atoms: _442  and  _443
REMARK  173  A    between atoms: _443  and  _444
REMARK  174  A    between atoms: _447  and  _449
REMARK  175  A    between atoms: _449  and  _450
REMARK  176  A    between atoms: _449  and  _452
REMARK  177  A    between atoms: _452  and  _453
REMARK  178  A    between atoms: _455  and  _457
REMARK  179  A    between atoms: _457  and  _458
REMARK  180  A    between atoms: _457  and  _460
REMARK  181  A    between atoms: _460  and  _461
REMARK  182  A    between atoms: _464  and  _466
REMARK  183  A    between atoms: _466  and  _467
REMARK  184  A    between atoms: _466  and  _469
REMARK  185  A    between atoms: _469  and  _470
REMARK  186  A    between atoms: _476  and  _478
REMARK  187  A    between atoms: _478  and  _479
REMARK  188  A    between atoms: _478  and  _481
REMARK  189  A    between atoms: _481  and  _482
REMARK  190  A    between atoms: _482  and  _483
REMARK  191  A    between atoms: _483  and  _484
REMARK  192  A    between atoms: _493  and  _495
REMARK  193  A    between atoms: _495  and  _496
REMARK  194  A    between atoms: _495  and  _498
REMARK  195  A    between atoms: _498  and  _499
REMARK  196  A    between atoms: _505  and  _507
REMARK  197  A    between atoms: _507  and  _508
REMARK  198  A    between atoms: _507  and  _510
REMARK  199  A    between atoms: _510  and  _511
REMARK  200  A    between atoms: _513  and  _515
REMARK  201  A    between atoms: _515  and  _516
REMARK  202  A    between atoms: _515  and  _518
REMARK  203  A    between atoms: _518  and  _519
REMARK  204  A    between atoms: _519  and  _520
REMARK  205  A    between atoms: _523  and  _525
REMARK  206  A    between atoms: _525  and  _526
REMARK  207  A    between atoms: _525  and  _528
REMARK  208  A    between atoms: _528  and  _529
REMARK  209  A    between atoms: _531  and  _533
REMARK  210  A    between atoms: _533  and  _534
REMARK  211  A    between atoms: _533  and  _536
REMARK  212  A    between atoms: _536  and  _537
REMARK  213  A    between atoms: _542  and  _543
REMARK  214  A    between atoms: _545  and  _547
REMARK  215  A    between atoms: _547  and  _548
REMARK  216  A    between atoms: _547  and  _550
REMARK  217  A    between atoms: _550  and  _551
REMARK  218  A    between atoms: _557  and  _559
REMARK  219  A    between atoms: _559  and  _560
REMARK  220  A    between atoms: _559  and  _562
REMARK  221  A    between atoms: _562  and  _563
REMARK  222  A    between atoms: _566  and  _568
REMARK  223  A    between atoms: _568  and  _569
REMARK  224  A    between atoms: _568  and  _571
REMARK  225  A    between atoms: _574  and  _576
REMARK  226  A    between atoms: _576  and  _577
REMARK  227  A    between atoms: _576  and  _579
REMARK  228  A    between atoms: _579  and  _580
REMARK  229  A    between atoms: _585  and  _586
REMARK  230  A    between atoms: _588  and  _590
REMARK  231  A    between atoms: _590  and  _591
REMARK  232  A    between atoms: _593  and  _595
REMARK  233  A    between atoms: _595  and  _596
REMARK  234  A    between atoms: _595  and  _598
REMARK  235  A    between atoms: _601  and  _603
REMARK  236  A    between atoms: _603  and  _604
REMARK  237  A    between atoms: _603  and  _606
REMARK  238  A    between atoms: _606  and  _607
REMARK  239  A    between atoms: _611  and  _612
REMARK  240  A    between atoms: _617  and  _619
REMARK  241  A    between atoms: _619  and  _620
REMARK  242  A    between atoms: _619  and  _622
REMARK  243  A    between atoms: _622  and  _623
REMARK  244  A    between atoms: _626  and  _628
REMARK  245  A    between atoms: _628  and  _629
REMARK  246  A    between atoms: _628  and  _631
REMARK  247  A    between atoms: _631  and  _632
REMARK  248  A    between atoms: _642  and  _644
REMARK  249  A    between atoms: _644  and  _645
REMARK  250  A    between atoms: _644  and  _647
REMARK  251  A    between atoms: _647  and  _648
REMARK  252  A    between atoms: _648  and  _649
REMARK  253  A    between atoms: _652  and  _653
REMARK  254  A    between atoms: _658  and  _660
REMARK  255  A    between atoms: _660  and  _661
REMARK  256  A    between atoms: _660  and  _663
REMARK  257  A    between atoms: _663  and  _664
REMARK  258  A    between atoms: _669  and  _671
REMARK  259  A    between atoms: _671  and  _672
REMARK  260  A    between atoms: _674  and  _676
REMARK  261  A    between atoms: _676  and  _677
REMARK  262  A    between atoms: _676  and  _679
REMARK  263  A    between atoms: _679  and  _680
REMARK  264  A    between atoms: _685  and  _686
REMARK  265  A    between atoms: _688  and  _690
REMARK  266  A    between atoms: _690  and  _691
REMARK  267  A    between atoms: _690  and  _693
REMARK  268  A    between atoms: _693  and  _694
REMARK  269  A    between atoms: _694  and  _695
REMARK  270  A    between atoms: _698  and  _700
REMARK  271  A    between atoms: _700  and  _701
REMARK  272  A    between atoms: _700  and  _703
REMARK  273  A    between atoms: _703  and  _704
REMARK                            x       y       z     vdW  Elec       q    Type
REMARK                         _______ _______ _______ _____ _____    ______ ____
ROOT
ATOM      1  O   HOH     1      31.655  21.364  16.496  0.00  0.00    +0.000 OA
ENDROOT
TORSDOF 0
REMARK  Name = ../refined-set-2016/1q84/1q84_pocket.pdb
REMARK  273 active torsions:
REMARK  status: ('A' for Active; 'I' for Inactive)
REMARK    1  A    between atoms: _1  and  _3
REMARK    2  A    between atoms: _3  and  _4
REMARK    3  A    between atoms: _3  and  _6
REMARK    4  A    between atoms: _6  and  _7
REMARK    5  A    between atoms: _7  and  _8
REMARK    6  A    between atoms: _13  and  _15
REMARK    7  A    between atoms: _15  and  _16
REMARK    8  A    between atoms: _15  and  _18
REMARK    9  A    between atoms: _18  and  _19
REMARK   10  A    between atoms: _24  and  _25
REMARK   11  A    between atoms: _27  and  _29
REMARK   12  A    between atoms: _29  and  _30
REMARK   13  A    between atoms: _29  and  _32
REMARK   14  A    between atoms: _35  and  _37
REMARK   15  A    between atoms: _37  and  _38
REMARK   16  A    between atoms: _37  and  _40
REMARK   17  A    between atoms: _40  and  _41
REMARK   18  A    between atoms: _44  and  _46
REMARK   19  A    between atoms: _46  and  _47
REMARK   20  A    between atoms: _46  and  _49
REMARK   21  A    between atoms: _49  and  _50
REMARK   22  A    between atoms: _53  and  _55
REMARK   23  A    between atoms: _55  and  _56
REMARK   24  A    between atoms: _55  and  _58
REMARK   25  A    between atoms: _58  and  _59
REMARK   26  A    between atoms: _62  and  _64
REMARK   27  A    between atoms: _64  and  _65
REMARK   28  A    between atoms: _64  and  _67
REMARK   29  A    between atoms: _67  and  _68
REMARK   30  A    between atoms: _73  and  _74
REMARK   31  A    between atoms: _76  and  _78
REMARK   32  A    between atoms: _78  and  _79
REMARK   33  A    between atoms: _78  and  _81
REMARK   34  A    between atoms: _81  and  _82
REMARK   35  A    between atoms: _88  and  _90
REMARK   36  A    between atoms: _90  and  _91
REMARK   37  A    between atoms: _90  and  _93
REMARK   38  A    between atoms: _93  and  _94
REMARK   39  A    between atoms: _94  and  _95
REMARK   40  A    between atoms: _98  and  _100
REMARK   41  A    between atoms: _100  and  _101
REMARK   42  A    between atoms: _103  and  _105
REMARK   43  A    between atoms: _105  and  _106
REMARK   44  A    between atoms: _105  and  _108
REMARK   45  A    between atoms: _108  and  _109
REMARK   46  A    between atoms: _112  and  _114
REMARK   47  A    between atoms: _114  and  _115
REMARK   48  A    between atoms: _114  and  _117
REMARK   49  A    between atoms: _117  and  _118
REMARK   50  A    between atoms: _118  and  _119
REMARK   51  A    between atoms: _122  and  _124
REMARK   52  A    between atoms: _124  and  _125
REMARK   53  A    between atoms: _124  and  _127
REMARK   54  A    between atoms: _127  and  _128
REMARK   55  A    between atoms: _128  and  _129
REMARK   56  A    between atoms: _131  and  _133
REMARK   57  A    between atoms: _133  and  _134
REMARK   58  A    between atoms: _133  and  _136
REMARK   59  A    between atoms: _136  and  _137
REMARK   60  A    between atoms: _147  and  _149
REMARK   61  A    between atoms: _149  and  _150
REMARK   62  A    between atoms: _149  and  _152
REMARK   63  A    between atoms: _152  and  _153
REMARK   64  A    between atoms: _158  and  _160
REMARK   65  A    between atoms: _160  and  _161
REMARK   66  A    between atoms: _160  and  _163
REMARK   67  A    between atoms: _163  and  _164
REMARK   68  A    between atoms: _174  and  _176
REMARK   69  A    between atoms: _176  and  _177
REMARK   70  A    between atoms: _176  and  _179
REMARK   71  A    between atoms: _179  and  _180
REMARK   72  A    between atoms: _185  and  _186
REMARK   73  A    between atoms: _188  and  _190
REMARK   74  A    between atoms: _190  and  _191
REMARK   75  A    between atoms: _193  and  _195
REMARK   76  A    between atoms: _195  and  _196
REMARK   77  A    between atoms: _198  and  _200
REMARK   78  A    between atoms: _200  and  _201
REMARK   79  A    between atoms: _203  and  _205
REMARK   80  A    between atoms: _205  and  _206
REMARK   81  A    between atoms: _205  and  _208
REMARK   82  A    between atoms: _208  and  _209
REMARK   83  A    between atoms: _215  and  _217
REMARK   84  A    between atoms: _217  and  _218
REMARK   85  A    between atoms: _217  and  _220
REMARK   86  A    between atoms: _220  and  _221
REMARK   87  A    between atoms: _226  and  _227
REMARK   88  A    between atoms: _229  and  _231
REMARK   89  A    between atoms: _231  and  _232
REMARK   90  A    between atoms: _231  and  _234
REMARK   91  A    between atoms: _234  and  _235
REMARK   92  A    between atoms: _237  and  _239
REMARK   93  A    between atoms: _239  and  _240
REMARK   94  A    between atoms: _242  and  _244
REMARK   95  A    between atoms: _244  and  _245
REMARK   96  A    between atoms: _248  and  _250
REMARK   97  A    between atoms: _250  and  _251
REMARK   98  A    between atoms: _250  and  _253
REMARK   99  A    between atoms: _253  and  _254
REMARK  100  A    between atoms: _257  and  _259
REMARK  101  A    between atoms: _259  and  _260
REMARK  102  A    between atoms: _259  and  _262
REMARK  103  A    between atoms: _265  and  _267
REMARK  104  A    between atoms: _267  and  _268
REMARK  105  A    between atoms: _267  and  _270
REMARK  106  A    between atoms: _270  and  _271
REMARK  107  A    between atoms: _276  and  _277
REMARK  108  A    between atoms: _279  and  _281
REMARK  109  A    between atoms: _281  and  _282
REMARK  110  A    between atoms: _281  and  _284
REMARK  111  A    between atoms: _284  and  _285
REMARK  112  A    between atoms: _290  and  _291
REMARK  113  A    between atoms: _293  and  _295
REMARK  114  A    between atoms: _295  and  _296
REMARK  115  A    between atoms: _295  and  _298
REMARK  116  A    between atoms: _298  and  _299
REMARK  117  A    between atoms: _299  and  _300
REMARK  118  A    between atoms: _303  and  _305
REMARK  119  A    between atoms: _305  and  _306
REMARK  120  A    between atoms: _305  and  _308
REMARK  121  A    between atoms: _308  and  _309
REMARK  122  A    between atoms: _311  and  _313
REMARK  123  A    between atoms: _313  and  _314
REMARK  124  A    between atoms: _317  and  _319
REMARK  125  A    between atoms: _319  and  _320
REMARK  126  A    between atoms: _322  and  _324
REMARK  127  A    between atoms: _324  and  _325
REMARK  128  A    between atoms: _328  and  _330
REMARK  129  A    between atoms: _330  and  _331
REMARK  130  A    between atoms: _330  and  _333
REMARK  131  A    between atoms: _333  and  _334
REMARK  132  A    between atoms: _336  and  _338
REMARK  133  A    between atoms: _338  and  _339
REMARK  134  A    between atoms: _338  and  _341
REMARK  135  A    between atoms: _344  and  _346
REMARK  136  A    between atoms: _346  and  _347
REMARK  137  A    between atoms: _346  and  _349
REMARK  138  A    between atoms: _349  and  _350
REMARK  139  A    between atoms: _353  and  _355
REMARK  140  A    between atoms: _355  and  _356
REMARK  141  A    between atoms: _355  and  _358
REMARK  142  A    between atoms: _358  and  _359
REMARK  143  A    between atoms: _364  and  _366
REMARK  144  A    between atoms: _366  and  _367
REMARK  145  A    between atoms: _366  and  _369
REMARK  146  A    between atoms: _369  and  _370
REMARK  147  A    between atoms: _370  and  _371
REMARK  148  A    between atoms: _374  and  _376
REMARK  149  A    between atoms: _376  and  _377
REMARK  150  A    between atoms: _376  and  _379
REMARK  151  A    between atoms: _379  and  _380
REMARK  152  A    between atoms: _390  and  _392
REMARK  153  A    between atoms: _392  and  _393
REMARK  154  A    between atoms: _392  and  _395
REMARK  155  A    between atoms: _395  and  _396
REMARK  156  A    between atoms: _401  and  _403
REMARK  157  A    between atoms: _403  and  _404
REMARK  158  A    between atoms: _403  and  _406
REMARK  159  A    between atoms: _409  and  _411
REMARK  160  A    between atoms: _411  and  _412
REMARK  161  A    between atoms: _411  and  _414
REMARK  162  A    between atoms: _414  and  _415
REMARK  163  A    between atoms: _419  and  _420
REMARK  164  A    between atoms: _425  and  _427
REMARK  165  A    between atoms: _427  and  _428
REMARK  166  A    between atoms: _427  and  _430
REMARK  167  A    between atoms: _430  and  _431
REMARK  168  A    between atoms: _431  and  _432
REMARK  169  A    between atoms: _437  and  _439
REMARK  170  A    between atoms: _439  and  _440
REMARK  171  A    between atoms: _439  and  _442
REMARK  172  A    between atoms: _442  and  _443
REMARK  173  A    between atoms: _443  and  _444
REMARK  174  A    between atoms: _447  and  _449
REMARK  175  A    between atoms: _449  and  _450
REMARK  176  A    between atoms: _449  and  _452
REMARK  177  A    between atoms: _452  and  _453
REMARK  178  A    between atoms: _455  and  _457
REMARK  179  A    between atoms: _457  and  _458
REMARK  180  A    between atoms: _457  and  _460
REMARK  181  A    between atoms: _460  and  _461
REMARK  182  A    between atoms: _464  and  _466
REMARK  183  A    between atoms: _466  and  _467
REMARK  184  A    between atoms: _466  and  _469
REMARK  185  A    between atoms: _469  and  _470
REMARK  186  A    between atoms: _476  and  _478
REMARK  187  A    between atoms: _478  and  _479
REMARK  188  A    between atoms: _478  and  _481
REMARK  189  A    between atoms: _481  and  _482
REMARK  190  A    between atoms: _482  and  _483
REMARK  191  A    between atoms: _483  and  _484
REMARK  192  A    between atoms: _493  and  _495
REMARK  193  A    between atoms: _495  and  _496
REMARK  194  A    between atoms: _495  and  _498
REMARK  195  A    between atoms: _498  and  _499
REMARK  196  A    between atoms: _505  and  _507
REMARK  197  A    between atoms: _507  and  _508
REMARK  198  A    between atoms: _507  and  _510
REMARK  199  A    between atoms: _510  and  _511
REMARK  200  A    between atoms: _513  and  _515
REMARK  201  A    between atoms: _515  and  _516
REMARK  202  A    between atoms: _515  and  _518
REMARK  203  A    between atoms: _518  and  _519
REMARK  204  A    between atoms: _519  and  _520
REMARK  205  A    between atoms: _523  and  _525
REMARK  206  A    between atoms: _525  and  _526
REMARK  207  A    between atoms: _525  and  _528
REMARK  208  A    between atoms: _528  and  _529
REMARK  209  A    between atoms: _531  and  _533
REMARK  210  A    between atoms: _533  and  _534
REMARK  211  A    between atoms: _533  and  _536
REMARK  212  A    between atoms: _536  and  _537
REMARK  213  A    between atoms: _542  and  _543
REMARK  214  A    between atoms: _545  and  _547
REMARK  215  A    between atoms: _547  and  _548
REMARK  216  A    between atoms: _547  and  _550
REMARK  217  A    between atoms: _550  and  _551
REMARK  218  A    between atoms: _557  and  _559
REMARK  219  A    between atoms: _559  and  _560
REMARK  220  A    between atoms: _559  and  _562
REMARK  221  A    between atoms: _562  and  _563
REMARK  222  A    between atoms: _566  and  _568
REMARK  223  A    between atoms: _568  and  _569
REMARK  224  A    between atoms: _568  and  _571
REMARK  225  A    between atoms: _574  and  _576
REMARK  226  A    between atoms: _576  and  _577
REMARK  227  A    between atoms: _576  and  _579
REMARK  228  A    between atoms: _579  and  _580
REMARK  229  A    between atoms: _585  and  _586
REMARK  230  A    between atoms: _588  and  _590
REMARK  231  A    between atoms: _590  and  _591
REMARK  232  A    between atoms: _593  and  _595
REMARK  233  A    between atoms: _595  and  _596
REMARK  234  A    between atoms: _595  and  _598
REMARK  235  A    between atoms: _601  and  _603
REMARK  236  A    between atoms: _603  and  _604
REMARK  237  A    between atoms: _603  and  _606
REMARK  238  A    between atoms: _606  and  _607
REMARK  239  A    between atoms: _611  and  _612
REMARK  240  A    between atoms: _617  and  _619
REMARK  241  A    between atoms: _619  and  _620
REMARK  242  A    between atoms: _619  and  _622
REMARK  243  A    between atoms: _622  and  _623
REMARK  244  A    between atoms: _626  and  _628
REMARK  245  A    between atoms: _628  and  _629
REMARK  246  A    between atoms: _628  and  _631
REMARK  247  A    between atoms: _631  and  _632
REMARK  248  A    between atoms: _642  and  _644
REMARK  249  A    between atoms: _644  and  _645
REMARK  250  A    between atoms: _644  and  _647
REMARK  251  A    between atoms: _647  and  _648
REMARK  252  A    between atoms: _648  and  _649
REMARK  253  A    between atoms: _652  and  _653
REMARK  254  A    between atoms: _658  and  _660
REMARK  255  A    between atoms: _660  and  _661
REMARK  256  A    between atoms: _660  and  _663
REMARK  257  A    between atoms: _663  and  _664
REMARK  258  A    between atoms: _669  and  _671
REMARK  259  A    between atoms: _671  and  _672
REMARK  260  A    between atoms: _674  and  _676
REMARK  261  A    between atoms: _676  and  _677
REMARK  262  A    between atoms: _676  and  _679
REMARK  263  A    between atoms: _679  and  _680
REMARK  264  A    between atoms: _685  and  _686
REMARK  265  A    between atoms: _688  and  _690
REMARK  266  A    between atoms: _690  and  _691
REMARK  267  A    between atoms: _690  and  _693
REMARK  268  A    between atoms: _693  and  _694
REMARK  269  A    between atoms: _694  and  _695
REMARK  270  A    between atoms: _698  and  _700
REMARK  271  A    between atoms: _700  and  _701
REMARK  272  A    between atoms: _700  and  _703
REMARK  273  A    between atoms: _703  and  _704
REMARK                            x       y       z     vdW  Elec       q    Type
REMARK                         _______ _______ _______ _____ _____    ______ ____
ROOT
ATOM      1  O   HOH     1      32.474  24.019  16.655  0.00  0.00    +0.000 OA
ENDROOT
TORSDOF 0
REMARK  Name = ../refined-set-2016/1q84/1q84_pocket.pdb
REMARK  273 active torsions:
REMARK  status: ('A' for Active; 'I' for Inactive)
REMARK    1  A    between atoms: _1  and  _3
REMARK    2  A    between atoms: _3  and  _4
REMARK    3  A    between atoms: _3  and  _6
REMARK    4  A    between atoms: _6  and  _7
REMARK    5  A    between atoms: _7  and  _8
REMARK    6  A    between atoms: _13  and  _15
REMARK    7  A    between atoms: _15  and  _16
REMARK    8  A    between atoms: _15  and  _18
REMARK    9  A    between atoms: _18  and  _19
REMARK   10  A    between atoms: _24  and  _25
REMARK   11  A    between atoms: _27  and  _29
REMARK   12  A    between atoms: _29  and  _30
REMARK   13  A    between atoms: _29  and  _32
REMARK   14  A    between atoms: _35  and  _37
REMARK   15  A    between atoms: _37  and  _38
REMARK   16  A    between atoms: _37  and  _40
REMARK   17  A    between atoms: _40  and  _41
REMARK   18  A    between atoms: _44  and  _46
REMARK   19  A    between atoms: _46  and  _47
REMARK   20  A    between atoms: _46  and  _49
REMARK   21  A    between atoms: _49  and  _50
REMARK   22  A    between atoms: _53  and  _55
REMARK   23  A    between atoms: _55  and  _56
REMARK   24  A    between atoms: _55  and  _58
REMARK   25  A    between atoms: _58  and  _59
REMARK   26  A    between atoms: _62  and  _64
REMARK   27  A    between atoms: _64  and  _65
REMARK   28  A    between atoms: _64  and  _67
REMARK   29  A    between atoms: _67  and  _68
REMARK   30  A    between atoms: _73  and  _74
REMARK   31  A    between atoms: _76  and  _78
REMARK   32  A    between atoms: _78  and  _79
REMARK   33  A    between atoms: _78  and  _81
REMARK   34  A    between atoms: _81  and  _82
REMARK   35  A    between atoms: _88  and  _90
REMARK   36  A    between atoms: _90  and  _91
REMARK   37  A    between atoms: _90  and  _93
REMARK   38  A    between atoms: _93  and  _94
REMARK   39  A    between atoms: _94  and  _95
REMARK   40  A    between atoms: _98  and  _100
REMARK   41  A    between atoms: _100  and  _101
REMARK   42  A    between atoms: _103  and  _105
REMARK   43  A    between atoms: _105  and  _106
REMARK   44  A    between atoms: _105  and  _108
REMARK   45  A    between atoms: _108  and  _109
REMARK   46  A    between atoms: _112  and  _114
REMARK   47  A    between atoms: _114  and  _115
REMARK   48  A    between atoms: _114  and  _117
REMARK   49  A    between atoms: _117  and  _118
REMARK   50  A    between atoms: _118  and  _119
REMARK   51  A    between atoms: _122  and  _124
REMARK   52  A    between atoms: _124  and  _125
REMARK   53  A    between atoms: _124  and  _127
REMARK   54  A    between atoms: _127  and  _128
REMARK   55  A    between atoms: _128  and  _129
REMARK   56  A    between atoms: _131  and  _133
REMARK   57  A    between atoms: _133  and  _134
REMARK   58  A    between atoms: _133  and  _136
REMARK   59  A    between atoms: _136  and  _137
REMARK   60  A    between atoms: _147  and  _149
REMARK   61  A    between atoms: _149  and  _150
REMARK   62  A    between atoms: _149  and  _152
REMARK   63  A    between atoms: _152  and  _153
REMARK   64  A    between atoms: _158  and  _160
REMARK   65  A    between atoms: _160  and  _161
REMARK   66  A    between atoms: _160  and  _163
REMARK   67  A    between atoms: _163  and  _164
REMARK   68  A    between atoms: _174  and  _176
REMARK   69  A    between atoms: _176  and  _177
REMARK   70  A    between atoms: _176  and  _179
REMARK   71  A    between atoms: _179  and  _180
REMARK   72  A    between atoms: _185  and  _186
REMARK   73  A    between atoms: _188  and  _190
REMARK   74  A    between atoms: _190  and  _191
REMARK   75  A    between atoms: _193  and  _195
REMARK   76  A    between atoms: _195  and  _196
REMARK   77  A    between atoms: _198  and  _200
REMARK   78  A    between atoms: _200  and  _201
REMARK   79  A    between atoms: _203  and  _205
REMARK   80  A    between atoms: _205  and  _206
REMARK   81  A    between atoms: _205  and  _208
REMARK   82  A    between atoms: _208  and  _209
REMARK   83  A    between atoms: _215  and  _217
REMARK   84  A    between atoms: _217  and  _218
REMARK   85  A    between atoms: _217  and  _220
REMARK   86  A    between atoms: _220  and  _221
REMARK   87  A    between atoms: _226  and  _227
REMARK   88  A    between atoms: _229  and  _231
REMARK   89  A    between atoms: _231  and  _232
REMARK   90  A    between atoms: _231  and  _234
REMARK   91  A    between atoms: _234  and  _235
REMARK   92  A    between atoms: _237  and  _239
REMARK   93  A    between atoms: _239  and  _240
REMARK   94  A    between atoms: _242  and  _244
REMARK   95  A    between atoms: _244  and  _245
REMARK   96  A    between atoms: _248  and  _250
REMARK   97  A    between atoms: _250  and  _251
REMARK   98  A    between atoms: _250  and  _253
REMARK   99  A    between atoms: _253  and  _254
REMARK  100  A    between atoms: _257  and  _259
REMARK  101  A    between atoms: _259  and  _260
REMARK  102  A    between atoms: _259  and  _262
REMARK  103  A    between atoms: _265  and  _267
REMARK  104  A    between atoms: _267  and  _268
REMARK  105  A    between atoms: _267  and  _270
REMARK  106  A    between atoms: _270  and  _271
REMARK  107  A    between atoms: _276  and  _277
REMARK  108  A    between atoms: _279  and  _281
REMARK  109  A    between atoms: _281  and  _282
REMARK  110  A    between atoms: _281  and  _284
REMARK  111  A    between atoms: _284  and  _285
REMARK  112  A    between atoms: _290  and  _291
REMARK  113  A    between atoms: _293  and  _295
REMARK  114  A    between atoms: _295  and  _296
REMARK  115  A    between atoms: _295  and  _298
REMARK  116  A    between atoms: _298  and  _299
REMARK  117  A    between atoms: _299  and  _300
REMARK  118  A    between atoms: _303  and  _305
REMARK  119  A    between atoms: _305  and  _306
REMARK  120  A    between atoms: _305  and  _308
REMARK  121  A    between atoms: _308  and  _309
REMARK  122  A    between atoms: _311  and  _313
REMARK  123  A    between atoms: _313  and  _314
REMARK  124  A    between atoms: _317  and  _319
REMARK  125  A    between atoms: _319  and  _320
REMARK  126  A    between atoms: _322  and  _324
REMARK  127  A    between atoms: _324  and  _325
REMARK  128  A    between atoms: _328  and  _330
REMARK  129  A    between atoms: _330  and  _331
REMARK  130  A    between atoms: _330  and  _333
REMARK  131  A    between atoms: _333  and  _334
REMARK  132  A    between atoms: _336  and  _338
REMARK  133  A    between atoms: _338  and  _339
REMARK  134  A    between atoms: _338  and  _341
REMARK  135  A    between atoms: _344  and  _346
REMARK  136  A    between atoms: _346  and  _347
REMARK  137  A    between atoms: _346  and  _349
REMARK  138  A    between atoms: _349  and  _350
REMARK  139  A    between atoms: _353  and  _355
REMARK  140  A    between atoms: _355  and  _356
REMARK  141  A    between atoms: _355  and  _358
REMARK  142  A    between atoms: _358  and  _359
REMARK  143  A    between atoms: _364  and  _366
REMARK  144  A    between atoms: _366  and  _367
REMARK  145  A    between atoms: _366  and  _369
REMARK  146  A    between atoms: _369  and  _370
REMARK  147  A    between atoms: _370  and  _371
REMARK  148  A    between atoms: _374  and  _376
REMARK  149  A    between atoms: _376  and  _377
REMARK  150  A    between atoms: _376  and  _379
REMARK  151  A    between atoms: _379  and  _380
REMARK  152  A    between atoms: _390  and  _392
REMARK  153  A    between atoms: _392  and  _393
REMARK  154  A    between atoms: _392  and  _395
REMARK  155  A    between atoms: _395  and  _396
REMARK  156  A    between atoms: _401  and  _403
REMARK  157  A    between atoms: _403  and  _404
REMARK  158  A    between atoms: _403  and  _406
REMARK  159  A    between atoms: _409  and  _411
REMARK  160  A    between atoms: _411  and  _412
REMARK  161  A    between atoms: _411  and  _414
REMARK  162  A    between atoms: _414  and  _415
REMARK  163  A    between atoms: _419  and  _420
REMARK  164  A    between atoms: _425  and  _427
REMARK  165  A    between atoms: _427  and  _428
REMARK  166  A    between atoms: _427  and  _430
REMARK  167  A    between atoms: _430  and  _431
REMARK  168  A    between atoms: _431  and  _432
REMARK  169  A    between atoms: _437  and  _439
REMARK  170  A    between atoms: _439  and  _440
REMARK  171  A    between atoms: _439  and  _442
REMARK  172  A    between atoms: _442  and  _443
REMARK  173  A    between atoms: _443  and  _444
REMARK  174  A    between atoms: _447  and  _449
REMARK  175  A    between atoms: _449  and  _450
REMARK  176  A    between atoms: _449  and  _452
REMARK  177  A    between atoms: _452  and  _453
REMARK  178  A    between atoms: _455  and  _457
REMARK  179  A    between atoms: _457  and  _458
REMARK  180  A    between atoms: _457  and  _460
REMARK  181  A    between atoms: _460  and  _461
REMARK  182  A    between atoms: _464  and  _466
REMARK  183  A    between atoms: _466  and  _467
REMARK  184  A    between atoms: _466  and  _469
REMARK  185  A    between atoms: _469  and  _470
REMARK  186  A    between atoms: _476  and  _478
REMARK  187  A    between atoms: _478  and  _479
REMARK  188  A    between atoms: _478  and  _481
REMARK  189  A    between atoms: _481  and  _482
REMARK  190  A    between atoms: _482  and  _483
REMARK  191  A    between atoms: _483  and  _484
REMARK  192  A    between atoms: _493  and  _495
REMARK  193  A    between atoms: _495  and  _496
REMARK  194  A    between atoms: _495  and  _498
REMARK  195  A    between atoms: _498  and  _499
REMARK  196  A    between atoms: _505  and  _507
REMARK  197  A    between atoms: _507  and  _508
REMARK  198  A    between atoms: _507  and  _510
REMARK  199  A    between atoms: _510  and  _511
REMARK  200  A    between atoms: _513  and  _515
REMARK  201  A    between atoms: _515  and  _516
REMARK  202  A    between atoms: _515  and  _518
REMARK  203  A    between atoms: _518  and  _519
REMARK  204  A    between atoms: _519  and  _520
REMARK  205  A    between atoms: _523  and  _525
REMARK  206  A    between atoms: _525  and  _526
REMARK  207  A    between atoms: _525  and  _528
REMARK  208  A    between atoms: _528  and  _529
REMARK  209  A    between atoms: _531  and  _533
REMARK  210  A    between atoms: _533  and  _534
REMARK  211  A    between atoms: _533  and  _536
REMARK  212  A    between atoms: _536  and  _537
REMARK  213  A    between atoms: _542  and  _543
REMARK  214  A    between atoms: _545  and  _547
REMARK  215  A    between atoms: _547  and  _548
REMARK  216  A    between atoms: _547  and  _550
REMARK  217  A    between atoms: _550  and  _551
REMARK  218  A    between atoms: _557  and  _559
REMARK  219  A    between atoms: _559  and  _560
REMARK  220  A    between atoms: _559  and  _562
REMARK  221  A    between atoms: _562  and  _563
REMARK  222  A    between atoms: _566  and  _568
REMARK  223  A    between atoms: _568  and  _569
REMARK  224  A    between atoms: _568  and  _571
REMARK  225  A    between atoms: _574  and  _576
REMARK  226  A    between atoms: _576  and  _577
REMARK  227  A    between atoms: _576  and  _579
REMARK  228  A    between atoms: _579  and  _580
REMARK  229  A    between atoms: _585  and  _586
REMARK  230  A    between atoms: _588  and  _590
REMARK  231  A    between atoms: _590  and  _591
REMARK  232  A    between atoms: _593  and  _595
REMARK  233  A    between atoms: _595  and  _596
REMARK  234  A    between atoms: _595  and  _598
REMARK  235  A    between atoms: _601  and  _603
REMARK  236  A    between atoms: _603  and  _604
REMARK  237  A    between atoms: _603  and  _606
REMARK  238  A    between atoms: _606  and  _607
REMARK  239  A    between atoms: _611  and  _612
REMARK  240  A    between atoms: _617  and  _619
REMARK  241  A    between atoms: _619  and  _620
REMARK  242  A    between atoms: _619  and  _622
REMARK  243  A    between atoms: _622  and  _623
REMARK  244  A    between atoms: _626  and  _628
REMARK  245  A    between atoms: _628  and  _629
REMARK  246  A    between atoms: _628  and  _631
REMARK  247  A    between atoms: _631  and  _632
REMARK  248  A    between atoms: _642  and  _644
REMARK  249  A    between atoms: _644  and  _645
REMARK  250  A    between atoms: _644  and  _647
REMARK  251  A    between atoms: _647  and  _648
REMARK  252  A    between atoms: _648  and  _649
REMARK  253  A    between atoms: _652  and  _653
REMARK  254  A    between atoms: _658  and  _660
REMARK  255  A    between atoms: _660  and  _661
REMARK  256  A    between atoms: _660  and  _663
REMARK  257  A    between atoms: _663  and  _664
REMARK  258  A    between atoms: _669  and  _671
REMARK  259  A    between atoms: _671  and  _672
REMARK  260  A    between atoms: _674  and  _676
REMARK  261  A    between atoms: _676  and  _677
REMARK  262  A    between atoms: _676  and  _679
REMARK  263  A    between atoms: _679  and  _680
REMARK  264  A    between atoms: _685  and  _686
REMARK  265  A    between atoms: _688  and  _690
REMARK  266  A    between atoms: _690  and  _691
REMARK  267  A    between atoms: _690  and  _693
REMARK  268  A    between atoms: _693  and  _694
REMARK  269  A    between atoms: _694  and  _695
REMARK  270  A    between atoms: _698  and  _700
REMARK  271  A    between atoms: _700  and  _701
REMARK  272  A    between atoms: _700  and  _703
REMARK  273  A    between atoms: _703  and  _704
REMARK                            x       y       z     vdW  Elec       q    Type
REMARK                         _______ _______ _______ _____ _____    ______ ____
ROOT
ATOM      1  O   HOH     1      43.344  27.659  15.306  0.00  0.00    +0.000 OA
ENDROOT
TORSDOF 0
REMARK  Name = ../refined-set-2016/1q84/1q84_pocket.pdb
REMARK  273 active torsions:
REMARK  status: ('A' for Active; 'I' for Inactive)
REMARK    1  A    between atoms: _1  and  _3
REMARK    2  A    between atoms: _3  and  _4
REMARK    3  A    between atoms: _3  and  _6
REMARK    4  A    between atoms: _6  and  _7
REMARK    5  A    between atoms: _7  and  _8
REMARK    6  A    between atoms: _13  and  _15
REMARK    7  A    between atoms: _15  and  _16
REMARK    8  A    between atoms: _15  and  _18
REMARK    9  A    between atoms: _18  and  _19
REMARK   10  A    between atoms: _24  and  _25
REMARK   11  A    between atoms: _27  and  _29
REMARK   12  A    between atoms: _29  and  _30
REMARK   13  A    between atoms: _29  and  _32
REMARK   14  A    between atoms: _35  and  _37
REMARK   15  A    between atoms: _37  and  _38
REMARK   16  A    between atoms: _37  and  _40
REMARK   17  A    between atoms: _40  and  _41
REMARK   18  A    between atoms: _44  and  _46
REMARK   19  A    between atoms: _46  and  _47
REMARK   20  A    between atoms: _46  and  _49
REMARK   21  A    between atoms: _49  and  _50
REMARK   22  A    between atoms: _53  and  _55
REMARK   23  A    between atoms: _55  and  _56
REMARK   24  A    between atoms: _55  and  _58
REMARK   25  A    between atoms: _58  and  _59
REMARK   26  A    between atoms: _62  and  _64
REMARK   27  A    between atoms: _64  and  _65
REMARK   28  A    between atoms: _64  and  _67
REMARK   29  A    between atoms: _67  and  _68
REMARK   30  A    between atoms: _73  and  _74
REMARK   31  A    between atoms: _76  and  _78
REMARK   32  A    between atoms: _78  and  _79
REMARK   33  A    between atoms: _78  and  _81
REMARK   34  A    between atoms: _81  and  _82
REMARK   35  A    between atoms: _88  and  _90
REMARK   36  A    between atoms: _90  and  _91
REMARK   37  A    between atoms: _90  and  _93
REMARK   38  A    between atoms: _93  and  _94
REMARK   39  A    between atoms: _94  and  _95
REMARK   40  A    between atoms: _98  and  _100
REMARK   41  A    between atoms: _100  and  _101
REMARK   42  A    between atoms: _103  and  _105
REMARK   43  A    between atoms: _105  and  _106
REMARK   44  A    between atoms: _105  and  _108
REMARK   45  A    between atoms: _108  and  _109
REMARK   46  A    between atoms: _112  and  _114
REMARK   47  A    between atoms: _114  and  _115
REMARK   48  A    between atoms: _114  and  _117
REMARK   49  A    between atoms: _117  and  _118
REMARK   50  A    between atoms: _118  and  _119
REMARK   51  A    between atoms: _122  and  _124
REMARK   52  A    between atoms: _124  and  _125
REMARK   53  A    between atoms: _124  and  _127
REMARK   54  A    between atoms: _127  and  _128
REMARK   55  A    between atoms: _128  and  _129
REMARK   56  A    between atoms: _131  and  _133
REMARK   57  A    between atoms: _133  and  _134
REMARK   58  A    between atoms: _133  and  _136
REMARK   59  A    between atoms: _136  and  _137
REMARK   60  A    between atoms: _147  and  _149
REMARK   61  A    between atoms: _149  and  _150
REMARK   62  A    between atoms: _149  and  _152
REMARK   63  A    between atoms: _152  and  _153
REMARK   64  A    between atoms: _158  and  _160
REMARK   65  A    between atoms: _160  and  _161
REMARK   66  A    between atoms: _160  and  _163
REMARK   67  A    between atoms: _163  and  _164
REMARK   68  A    between atoms: _174  and  _176
REMARK   69  A    between atoms: _176  and  _177
REMARK   70  A    between atoms: _176  and  _179
REMARK   71  A    between atoms: _179  and  _180
REMARK   72  A    between atoms: _185  and  _186
REMARK   73  A    between atoms: _188  and  _190
REMARK   74  A    between atoms: _190  and  _191
REMARK   75  A    between atoms: _193  and  _195
REMARK   76  A    between atoms: _195  and  _196
REMARK   77  A    between atoms: _198  and  _200
REMARK   78  A    between atoms: _200  and  _201
REMARK   79  A    between atoms: _203  and  _205
REMARK   80  A    between atoms: _205  and  _206
REMARK   81  A    between atoms: _205  and  _208
REMARK   82  A    between atoms: _208  and  _209
REMARK   83  A    between atoms: _215  and  _217
REMARK   84  A    between atoms: _217  and  _218
REMARK   85  A    between atoms: _217  and  _220
REMARK   86  A    between atoms: _220  and  _221
REMARK   87  A    between atoms: _226  and  _227
REMARK   88  A    between atoms: _229  and  _231
REMARK   89  A    between atoms: _231  and  _232
REMARK   90  A    between atoms: _231  and  _234
REMARK   91  A    between atoms: _234  and  _235
REMARK   92  A    between atoms: _237  and  _239
REMARK   93  A    between atoms: _239  and  _240
REMARK   94  A    between atoms: _242  and  _244
REMARK   95  A    between atoms: _244  and  _245
REMARK   96  A    between atoms: _248  and  _250
REMARK   97  A    between atoms: _250  and  _251
REMARK   98  A    between atoms: _250  and  _253
REMARK   99  A    between atoms: _253  and  _254
REMARK  100  A    between atoms: _257  and  _259
REMARK  101  A    between atoms: _259  and  _260
REMARK  102  A    between atoms: _259  and  _262
REMARK  103  A    between atoms: _265  and  _267
REMARK  104  A    between atoms: _267  and  _268
REMARK  105  A    between atoms: _267  and  _270
REMARK  106  A    between atoms: _270  and  _271
REMARK  107  A    between atoms: _276  and  _277
REMARK  108  A    between atoms: _279  and  _281
REMARK  109  A    between atoms: _281  and  _282
REMARK  110  A    between atoms: _281  and  _284
REMARK  111  A    between atoms: _284  and  _285
REMARK  112  A    between atoms: _290  and  _291
REMARK  113  A    between atoms: _293  and  _295
REMARK  114  A    between atoms: _295  and  _296
REMARK  115  A    between atoms: _295  and  _298
REMARK  116  A    between atoms: _298  and  _299
REMARK  117  A    between atoms: _299  and  _300
REMARK  118  A    between atoms: _303  and  _305
REMARK  119  A    between atoms: _305  and  _306
REMARK  120  A    between atoms: _305  and  _308
REMARK  121  A    between atoms: _308  and  _309
REMARK  122  A    between atoms: _311  and  _313
REMARK  123  A    between atoms: _313  and  _314
REMARK  124  A    between atoms: _317  and  _319
REMARK  125  A    between atoms: _319  and  _320
REMARK  126  A    between atoms: _322  and  _324
REMARK  127  A    between atoms: _324  and  _325
REMARK  128  A    between atoms: _328  and  _330
REMARK  129  A    between atoms: _330  and  _331
REMARK  130  A    between atoms: _330  and  _333
REMARK  131  A    between atoms: _333  and  _334
REMARK  132  A    between atoms: _336  and  _338
REMARK  133  A    between atoms: _338  and  _339
REMARK  134  A    between atoms: _338  and  _341
REMARK  135  A    between atoms: _344  and  _346
REMARK  136  A    between atoms: _346  and  _347
REMARK  137  A    between atoms: _346  and  _349
REMARK  138  A    between atoms: _349  and  _350
REMARK  139  A    between atoms: _353  and  _355
REMARK  140  A    between atoms: _355  and  _356
REMARK  141  A    between atoms: _355  and  _358
REMARK  142  A    between atoms: _358  and  _359
REMARK  143  A    between atoms: _364  and  _366
REMARK  144  A    between atoms: _366  and  _367
REMARK  145  A    between atoms: _366  and  _369
REMARK  146  A    between atoms: _369  and  _370
REMARK  147  A    between atoms: _370  and  _371
REMARK  148  A    between atoms: _374  and  _376
REMARK  149  A    between atoms: _376  and  _377
REMARK  150  A    between atoms: _376  and  _379
REMARK  151  A    between atoms: _379  and  _380
REMARK  152  A    between atoms: _390  and  _392
REMARK  153  A    between atoms: _392  and  _393
REMARK  154  A    between atoms: _392  and  _395
REMARK  155  A    between atoms: _395  and  _396
REMARK  156  A    between atoms: _401  and  _403
REMARK  157  A    between atoms: _403  and  _404
REMARK  158  A    between atoms: _403  and  _406
REMARK  159  A    between atoms: _409  and  _411
REMARK  160  A    between atoms: _411  and  _412
REMARK  161  A    between atoms: _411  and  _414
REMARK  162  A    between atoms: _414  and  _415
REMARK  163  A    between atoms: _419  and  _420
REMARK  164  A    between atoms: _425  and  _427
REMARK  165  A    between atoms: _427  and  _428
REMARK  166  A    between atoms: _427  and  _430
REMARK  167  A    between atoms: _430  and  _431
REMARK  168  A    between atoms: _431  and  _432
REMARK  169  A    between atoms: _437  and  _439
REMARK  170  A    between atoms: _439  and  _440
REMARK  171  A    between atoms: _439  and  _442
REMARK  172  A    between atoms: _442  and  _443
REMARK  173  A    between atoms: _443  and  _444
REMARK  174  A    between atoms: _447  and  _449
REMARK  175  A    between atoms: _449  and  _450
REMARK  176  A    between atoms: _449  and  _452
REMARK  177  A    between atoms: _452  and  _453
REMARK  178  A    between atoms: _455  and  _457
REMARK  179  A    between atoms: _457  and  _458
REMARK  180  A    between atoms: _457  and  _460
REMARK  181  A    between atoms: _460  and  _461
REMARK  182  A    between atoms: _464  and  _466
REMARK  183  A    between atoms: _466  and  _467
REMARK  184  A    between atoms: _466  and  _469
REMARK  185  A    between atoms: _469  and  _470
REMARK  186  A    between atoms: _476  and  _478
REMARK  187  A    between atoms: _478  and  _479
REMARK  188  A    between atoms: _478  and  _481
REMARK  189  A    between atoms: _481  and  _482
REMARK  190  A    between atoms: _482  and  _483
REMARK  191  A    between atoms: _483  and  _484
REMARK  192  A    between atoms: _493  and  _495
REMARK  193  A    between atoms: _495  and  _496
REMARK  194  A    between atoms: _495  and  _498
REMARK  195  A    between atoms: _498  and  _499
REMARK  196  A    between atoms: _505  and  _507
REMARK  197  A    between atoms: _507  and  _508
REMARK  198  A    between atoms: _507  and  _510
REMARK  199  A    between atoms: _510  and  _511
REMARK  200  A    between atoms: _513  and  _515
REMARK  201  A    between atoms: _515  and  _516
REMARK  202  A    between atoms: _515  and  _518
REMARK  203  A    between atoms: _518  and  _519
REMARK  204  A    between atoms: _519  and  _520
REMARK  205  A    between atoms: _523  and  _525
REMARK  206  A    between atoms: _525  and  _526
REMARK  207  A    between atoms: _525  and  _528
REMARK  208  A    between atoms: _528  and  _529
REMARK  209  A    between atoms: _531  and  _533
REMARK  210  A    between atoms: _533  and  _534
REMARK  211  A    between atoms: _533  and  _536
REMARK  212  A    between atoms: _536  and  _537
REMARK  213  A    between atoms: _542  and  _543
REMARK  214  A    between atoms: _545  and  _547
REMARK  215  A    between atoms: _547  and  _548
REMARK  216  A    between atoms: _547  and  _550
REMARK  217  A    between atoms: _550  and  _551
REMARK  218  A    between atoms: _557  and  _559
REMARK  219  A    between atoms: _559  and  _560
REMARK  220  A    between atoms: _559  and  _562
REMARK  221  A    between atoms: _562  and  _563
REMARK  222  A    between atoms: _566  and  _568
REMARK  223  A    between atoms: _568  and  _569
REMARK  224  A    between atoms: _568  and  _571
REMARK  225  A    between atoms: _574  and  _576
REMARK  226  A    between atoms: _576  and  _577
REMARK  227  A    between atoms: _576  and  _579
REMARK  228  A    between atoms: _579  and  _580
REMARK  229  A    between atoms: _585  and  _586
REMARK  230  A    between atoms: _588  and  _590
REMARK  231  A    between atoms: _590  and  _591
REMARK  232  A    between atoms: _593  and  _595
REMARK  233  A    between atoms: _595  and  _596
REMARK  234  A    between atoms: _595  and  _598
REMARK  235  A    between atoms: _601  and  _603
REMARK  236  A    between atoms: _603  and  _604
REMARK  237  A    between atoms: _603  and  _606
REMARK  238  A    between atoms: _606  and  _607
REMARK  239  A    between atoms: _611  and  _612
REMARK  240  A    between atoms: _617  and  _619
REMARK  241  A    between atoms: _619  and  _620
REMARK  242  A    between atoms: _619  and  _622
REMARK  243  A    between atoms: _622  and  _623
REMARK  244  A    between atoms: _626  and  _628
REMARK  245  A    between atoms: _628  and  _629
REMARK  246  A    between atoms: _628  and  _631
REMARK  247  A    between atoms: _631  and  _632
REMARK  248  A    between atoms: _642  and  _644
REMARK  249  A    between atoms: _644  and  _645
REMARK  250  A    between atoms: _644  and  _647
REMARK  251  A    between atoms: _647  and  _648
REMARK  252  A    between atoms: _648  and  _649
REMARK  253  A    between atoms: _652  and  _653
REMARK  254  A    between atoms: _658  and  _660
REMARK  255  A    between atoms: _660  and  _661
REMARK  256  A    between atoms: _660  and  _663
REMARK  257  A    between atoms: _663  and  _664
REMARK  258  A    between atoms: _669  and  _671
REMARK  259  A    between atoms: _671  and  _672
REMARK  260  A    between atoms: _674  and  _676
REMARK  261  A    between atoms: _676  and  _677
REMARK  262  A    between atoms: _676  and  _679
REMARK  263  A    between atoms: _679  and  _680
REMARK  264  A    between atoms: _685  and  _686
REMARK  265  A    between atoms: _688  and  _690
REMARK  266  A    between atoms: _690  and  _691
REMARK  267  A    between atoms: _690  and  _693
REMARK  268  A    between atoms: _693  and  _694
REMARK  269  A    between atoms: _694  and  _695
REMARK  270  A    between atoms: _698  and  _700
REMARK  271  A    between atoms: _700  and  _701
REMARK  272  A    between atoms: _700  and  _703
REMARK  273  A    between atoms: _703  and  _704
REMARK                            x       y       z     vdW  Elec       q    Type
REMARK                         _______ _______ _______ _____ _____    ______ ____
ROOT
ATOM      1  O   HOH     1      20.098  27.915  15.967  0.00  0.00    +0.000 OA
ENDROOT
TORSDOF 0
REMARK  Name = ../refined-set-2016/1q84/1q84_pocket.pdb
REMARK  273 active torsions:
REMARK  status: ('A' for Active; 'I' for Inactive)
REMARK    1  A    between atoms: _1  and  _3
REMARK    2  A    between atoms: _3  and  _4
REMARK    3  A    between atoms: _3  and  _6
REMARK    4  A    between atoms: _6  and  _7
REMARK    5  A    between atoms: _7  and  _8
REMARK    6  A    between atoms: _13  and  _15
REMARK    7  A    between atoms: _15  and  _16
REMARK    8  A    between atoms: _15  and  _18
REMARK    9  A    between atoms: _18  and  _19
REMARK   10  A    between atoms: _24  and  _25
REMARK   11  A    between atoms: _27  and  _29
REMARK   12  A    between atoms: _29  and  _30
REMARK   13  A    between atoms: _29  and  _32
REMARK   14  A    between atoms: _35  and  _37
REMARK   15  A    between atoms: _37  and  _38
REMARK   16  A    between atoms: _37  and  _40
REMARK   17  A    between atoms: _40  and  _41
REMARK   18  A    between atoms: _44  and  _46
REMARK   19  A    between atoms: _46  and  _47
REMARK   20  A    between atoms: _46  and  _49
REMARK   21  A    between atoms: _49  and  _50
REMARK   22  A    between atoms: _53  and  _55
REMARK   23  A    between atoms: _55  and  _56
REMARK   24  A    between atoms: _55  and  _58
REMARK   25  A    between atoms: _58  and  _59
REMARK   26  A    between atoms: _62  and  _64
REMARK   27  A    between atoms: _64  and  _65
REMARK   28  A    between atoms: _64  and  _67
REMARK   29  A    between atoms: _67  and  _68
REMARK   30  A    between atoms: _73  and  _74
REMARK   31  A    between atoms: _76  and  _78
REMARK   32  A    between atoms: _78  and  _79
REMARK   33  A    between atoms: _78  and  _81
REMARK   34  A    between atoms: _81  and  _82
REMARK   35  A    between atoms: _88  and  _90
REMARK   36  A    between atoms: _90  and  _91
REMARK   37  A    between atoms: _90  and  _93
REMARK   38  A    between atoms: _93  and  _94
REMARK   39  A    between atoms: _94  and  _95
REMARK   40  A    between atoms: _98  and  _100
REMARK   41  A    between atoms: _100  and  _101
REMARK   42  A    between atoms: _103  and  _105
REMARK   43  A    between atoms: _105  and  _106
REMARK   44  A    between atoms: _105  and  _108
REMARK   45  A    between atoms: _108  and  _109
REMARK   46  A    between atoms: _112  and  _114
REMARK   47  A    between atoms: _114  and  _115
REMARK   48  A    between atoms: _114  and  _117
REMARK   49  A    between atoms: _117  and  _118
REMARK   50  A    between atoms: _118  and  _119
REMARK   51  A    between atoms: _122  and  _124
REMARK   52  A    between atoms: _124  and  _125
REMARK   53  A    between atoms: _124  and  _127
REMARK   54  A    between atoms: _127  and  _128
REMARK   55  A    between atoms: _128  and  _129
REMARK   56  A    between atoms: _131  and  _133
REMARK   57  A    between atoms: _133  and  _134
REMARK   58  A    between atoms: _133  and  _136
REMARK   59  A    between atoms: _136  and  _137
REMARK   60  A    between atoms: _147  and  _149
REMARK   61  A    between atoms: _149  and  _150
REMARK   62  A    between atoms: _149  and  _152
REMARK   63  A    between atoms: _152  and  _153
REMARK   64  A    between atoms: _158  and  _160
REMARK   65  A    between atoms: _160  and  _161
REMARK   66  A    between atoms: _160  and  _163
REMARK   67  A    between atoms: _163  and  _164
REMARK   68  A    between atoms: _174  and  _176
REMARK   69  A    between atoms: _176  and  _177
REMARK   70  A    between atoms: _176  and  _179
REMARK   71  A    between atoms: _179  and  _180
REMARK   72  A    between atoms: _185  and  _186
REMARK   73  A    between atoms: _188  and  _190
REMARK   74  A    between atoms: _190  and  _191
REMARK   75  A    between atoms: _193  and  _195
REMARK   76  A    between atoms: _195  and  _196
REMARK   77  A    between atoms: _198  and  _200
REMARK   78  A    between atoms: _200  and  _201
REMARK   79  A    between atoms: _203  and  _205
REMARK   80  A    between atoms: _205  and  _206
REMARK   81  A    between atoms: _205  and  _208
REMARK   82  A    between atoms: _208  and  _209
REMARK   83  A    between atoms: _215  and  _217
REMARK   84  A    between atoms: _217  and  _218
REMARK   85  A    between atoms: _217  and  _220
REMARK   86  A    between atoms: _220  and  _221
REMARK   87  A    between atoms: _226  and  _227
REMARK   88  A    between atoms: _229  and  _231
REMARK   89  A    between atoms: _231  and  _232
REMARK   90  A    between atoms: _231  and  _234
REMARK   91  A    between atoms: _234  and  _235
REMARK   92  A    between atoms: _237  and  _239
REMARK   93  A    between atoms: _239  and  _240
REMARK   94  A    between atoms: _242  and  _244
REMARK   95  A    between atoms: _244  and  _245
REMARK   96  A    between atoms: _248  and  _250
REMARK   97  A    between atoms: _250  and  _251
REMARK   98  A    between atoms: _250  and  _253
REMARK   99  A    between atoms: _253  and  _254
REMARK  100  A    between atoms: _257  and  _259
REMARK  101  A    between atoms: _259  and  _260
REMARK  102  A    between atoms: _259  and  _262
REMARK  103  A    between atoms: _265  and  _267
REMARK  104  A    between atoms: _267  and  _268
REMARK  105  A    between atoms: _267  and  _270
REMARK  106  A    between atoms: _270  and  _271
REMARK  107  A    between atoms: _276  and  _277
REMARK  108  A    between atoms: _279  and  _281
REMARK  109  A    between atoms: _281  and  _282
REMARK  110  A    between atoms: _281  and  _284
REMARK  111  A    between atoms: _284  and  _285
REMARK  112  A    between atoms: _290  and  _291
REMARK  113  A    between atoms: _293  and  _295
REMARK  114  A    between atoms: _295  and  _296
REMARK  115  A    between atoms: _295  and  _298
REMARK  116  A    between atoms: _298  and  _299
REMARK  117  A    between atoms: _299  and  _300
REMARK  118  A    between atoms: _303  and  _305
REMARK  119  A    between atoms: _305  and  _306
REMARK  120  A    between atoms: _305  and  _308
REMARK  121  A    between atoms: _308  and  _309
REMARK  122  A    between atoms: _311  and  _313
REMARK  123  A    between atoms: _313  and  _314
REMARK  124  A    between atoms: _317  and  _319
REMARK  125  A    between atoms: _319  and  _320
REMARK  126  A    between atoms: _322  and  _324
REMARK  127  A    between atoms: _324  and  _325
REMARK  128  A    between atoms: _328  and  _330
REMARK  129  A    between atoms: _330  and  _331
REMARK  130  A    between atoms: _330  and  _333
REMARK  131  A    between atoms: _333  and  _334
REMARK  132  A    between atoms: _336  and  _338
REMARK  133  A    between atoms: _338  and  _339
REMARK  134  A    between atoms: _338  and  _341
REMARK  135  A    between atoms: _344  and  _346
REMARK  136  A    between atoms: _346  and  _347
REMARK  137  A    between atoms: _346  and  _349
REMARK  138  A    between atoms: _349  and  _350
REMARK  139  A    between atoms: _353  and  _355
REMARK  140  A    between atoms: _355  and  _356
REMARK  141  A    between atoms: _355  and  _358
REMARK  142  A    between atoms: _358  and  _359
REMARK  143  A    between atoms: _364  and  _366
REMARK  144  A    between atoms: _366  and  _367
REMARK  145  A    between atoms: _366  and  _369
REMARK  146  A    between atoms: _369  and  _370
REMARK  147  A    between atoms: _370  and  _371
REMARK  148  A    between atoms: _374  and  _376
REMARK  149  A    between atoms: _376  and  _377
REMARK  150  A    between atoms: _376  and  _379
REMARK  151  A    between atoms: _379  and  _380
REMARK  152  A    between atoms: _390  and  _392
REMARK  153  A    between atoms: _392  and  _393
REMARK  154  A    between atoms: _392  and  _395
REMARK  155  A    between atoms: _395  and  _396
REMARK  156  A    between atoms: _401  and  _403
REMARK  157  A    between atoms: _403  and  _404
REMARK  158  A    between atoms: _403  and  _406
REMARK  159  A    between atoms: _409  and  _411
REMARK  160  A    between atoms: _411  and  _412
REMARK  161  A    between atoms: _411  and  _414
REMARK  162  A    between atoms: _414  and  _415
REMARK  163  A    between atoms: _419  and  _420
REMARK  164  A    between atoms: _425  and  _427
REMARK  165  A    between atoms: _427  and  _428
REMARK  166  A    between atoms: _427  and  _430
REMARK  167  A    between atoms: _430  and  _431
REMARK  168  A    between atoms: _431  and  _432
REMARK  169  A    between atoms: _437  and  _439
REMARK  170  A    between atoms: _439  and  _440
REMARK  171  A    between atoms: _439  and  _442
REMARK  172  A    between atoms: _442  and  _443
REMARK  173  A    between atoms: _443  and  _444
REMARK  174  A    between atoms: _447  and  _449
REMARK  175  A    between atoms: _449  and  _450
REMARK  176  A    between atoms: _449  and  _452
REMARK  177  A    between atoms: _452  and  _453
REMARK  178  A    between atoms: _455  and  _457
REMARK  179  A    between atoms: _457  and  _458
REMARK  180  A    between atoms: _457  and  _460
REMARK  181  A    between atoms: _460  and  _461
REMARK  182  A    between atoms: _464  and  _466
REMARK  183  A    between atoms: _466  and  _467
REMARK  184  A    between atoms: _466  and  _469
REMARK  185  A    between atoms: _469  and  _470
REMARK  186  A    between atoms: _476  and  _478
REMARK  187  A    between atoms: _478  and  _479
REMARK  188  A    between atoms: _478  and  _481
REMARK  189  A    between atoms: _481  and  _482
REMARK  190  A    between atoms: _482  and  _483
REMARK  191  A    between atoms: _483  and  _484
REMARK  192  A    between atoms: _493  and  _495
REMARK  193  A    between atoms: _495  and  _496
REMARK  194  A    between atoms: _495  and  _498
REMARK  195  A    between atoms: _498  and  _499
REMARK  196  A    between atoms: _505  and  _507
REMARK  197  A    between atoms: _507  and  _508
REMARK  198  A    between atoms: _507  and  _510
REMARK  199  A    between atoms: _510  and  _511
REMARK  200  A    between atoms: _513  and  _515
REMARK  201  A    between atoms: _515  and  _516
REMARK  202  A    between atoms: _515  and  _518
REMARK  203  A    between atoms: _518  and  _519
REMARK  204  A    between atoms: _519  and  _520
REMARK  205  A    between atoms: _523  and  _525
REMARK  206  A    between atoms: _525  and  _526
REMARK  207  A    between atoms: _525  and  _528
REMARK  208  A    between atoms: _528  and  _529
REMARK  209  A    between atoms: _531  and  _533
REMARK  210  A    between atoms: _533  and  _534
REMARK  211  A    between atoms: _533  and  _536
REMARK  212  A    between atoms: _536  and  _537
REMARK  213  A    between atoms: _542  and  _543
REMARK  214  A    between atoms: _545  and  _547
REMARK  215  A    between atoms: _547  and  _548
REMARK  216  A    between atoms: _547  and  _550
REMARK  217  A    between atoms: _550  and  _551
REMARK  218  A    between atoms: _557  and  _559
REMARK  219  A    between atoms: _559  and  _560
REMARK  220  A    between atoms: _559  and  _562
REMARK  221  A    between atoms: _562  and  _563
REMARK  222  A    between atoms: _566  and  _568
REMARK  223  A    between atoms: _568  and  _569
REMARK  224  A    between atoms: _568  and  _571
REMARK  225  A    between atoms: _574  and  _576
REMARK  226  A    between atoms: _576  and  _577
REMARK  227  A    between atoms: _576  and  _579
REMARK  228  A    between atoms: _579  and  _580
REMARK  229  A    between atoms: _585  and  _586
REMARK  230  A    between atoms: _588  and  _590
REMARK  231  A    between atoms: _590  and  _591
REMARK  232  A    between atoms: _593  and  _595
REMARK  233  A    between atoms: _595  and  _596
REMARK  234  A    between atoms: _595  and  _598
REMARK  235  A    between atoms: _601  and  _603
REMARK  236  A    between atoms: _603  and  _604
REMARK  237  A    between atoms: _603  and  _606
REMARK  238  A    between atoms: _606  and  _607
REMARK  239  A    between atoms: _611  and  _612
REMARK  240  A    between atoms: _617  and  _619
REMARK  241  A    between atoms: _619  and  _620
REMARK  242  A    between atoms: _619  and  _622
REMARK  243  A    between atoms: _622  and  _623
REMARK  244  A    between atoms: _626  and  _628
REMARK  245  A    between atoms: _628  and  _629
REMARK  246  A    between atoms: _628  and  _631
REMARK  247  A    between atoms: _631  and  _632
REMARK  248  A    between atoms: _642  and  _644
REMARK  249  A    between atoms: _644  and  _645
REMARK  250  A    between atoms: _644  and  _647
REMARK  251  A    between atoms: _647  and  _648
REMARK  252  A    between atoms: _648  and  _649
REMARK  253  A    between atoms: _652  and  _653
REMARK  254  A    between atoms: _658  and  _660
REMARK  255  A    between atoms: _660  and  _661
REMARK  256  A    between atoms: _660  and  _663
REMARK  257  A    between atoms: _663  and  _664
REMARK  258  A    between atoms: _669  and  _671
REMARK  259  A    between atoms: _671  and  _672
REMARK  260  A    between atoms: _674  and  _676
REMARK  261  A    between atoms: _676  and  _677
REMARK  262  A    between atoms: _676  and  _679
REMARK  263  A    between atoms: _679  and  _680
REMARK  264  A    between atoms: _685  and  _686
REMARK  265  A    between atoms: _688  and  _690
REMARK  266  A    between atoms: _690  and  _691
REMARK  267  A    between atoms: _690  and  _693
REMARK  268  A    between atoms: _693  and  _694
REMARK  269  A    between atoms: _694  and  _695
REMARK  270  A    between atoms: _698  and  _700
REMARK  271  A    between atoms: _700  and  _701
REMARK  272  A    between atoms: _700  and  _703
REMARK  273  A    between atoms: _703  and  _704
REMARK                            x       y       z     vdW  Elec       q    Type
REMARK                         _______ _______ _______ _____ _____    ______ ____
ROOT
ATOM      1  O   HOH     1      44.097  24.411  11.087  0.00  0.00    +0.000 OA
ENDROOT
TORSDOF 0
REMARK  Name = ../refined-set-2016/1q84/1q84_pocket.pdb
REMARK  273 active torsions:
REMARK  status: ('A' for Active; 'I' for Inactive)
REMARK    1  A    between atoms: _1  and  _3
REMARK    2  A    between atoms: _3  and  _4
REMARK    3  A    between atoms: _3  and  _6
REMARK    4  A    between atoms: _6  and  _7
REMARK    5  A    between atoms: _7  and  _8
REMARK    6  A    between atoms: _13  and  _15
REMARK    7  A    between atoms: _15  and  _16
REMARK    8  A    between atoms: _15  and  _18
REMARK    9  A    between atoms: _18  and  _19
REMARK   10  A    between atoms: _24  and  _25
REMARK   11  A    between atoms: _27  and  _29
REMARK   12  A    between atoms: _29  and  _30
REMARK   13  A    between atoms: _29  and  _32
REMARK   14  A    between atoms: _35  and  _37
REMARK   15  A    between atoms: _37  and  _38
REMARK   16  A    between atoms: _37  and  _40
REMARK   17  A    between atoms: _40  and  _41
REMARK   18  A    between atoms: _44  and  _46
REMARK   19  A    between atoms: _46  and  _47
REMARK   20  A    between atoms: _46  and  _49
REMARK   21  A    between atoms: _49  and  _50
REMARK   22  A    between atoms: _53  and  _55
REMARK   23  A    between atoms: _55  and  _56
REMARK   24  A    between atoms: _55  and  _58
REMARK   25  A    between atoms: _58  and  _59
REMARK   26  A    between atoms: _62  and  _64
REMARK   27  A    between atoms: _64  and  _65
REMARK   28  A    between atoms: _64  and  _67
REMARK   29  A    between atoms: _67  and  _68
REMARK   30  A    between atoms: _73  and  _74
REMARK   31  A    between atoms: _76  and  _78
REMARK   32  A    between atoms: _78  and  _79
REMARK   33  A    between atoms: _78  and  _81
REMARK   34  A    between atoms: _81  and  _82
REMARK   35  A    between atoms: _88  and  _90
REMARK   36  A    between atoms: _90  and  _91
REMARK   37  A    between atoms: _90  and  _93
REMARK   38  A    between atoms: _93  and  _94
REMARK   39  A    between atoms: _94  and  _95
REMARK   40  A    between atoms: _98  and  _100
REMARK   41  A    between atoms: _100  and  _101
REMARK   42  A    between atoms: _103  and  _105
REMARK   43  A    between atoms: _105  and  _106
REMARK   44  A    between atoms: _105  and  _108
REMARK   45  A    between atoms: _108  and  _109
REMARK   46  A    between atoms: _112  and  _114
REMARK   47  A    between atoms: _114  and  _115
REMARK   48  A    between atoms: _114  and  _117
REMARK   49  A    between atoms: _117  and  _118
REMARK   50  A    between atoms: _118  and  _119
REMARK   51  A    between atoms: _122  and  _124
REMARK   52  A    between atoms: _124  and  _125
REMARK   53  A    between atoms: _124  and  _127
REMARK   54  A    between atoms: _127  and  _128
REMARK   55  A    between atoms: _128  and  _129
REMARK   56  A    between atoms: _131  and  _133
REMARK   57  A    between atoms: _133  and  _134
REMARK   58  A    between atoms: _133  and  _136
REMARK   59  A    between atoms: _136  and  _137
REMARK   60  A    between atoms: _147  and  _149
REMARK   61  A    between atoms: _149  and  _150
REMARK   62  A    between atoms: _149  and  _152
REMARK   63  A    between atoms: _152  and  _153
REMARK   64  A    between atoms: _158  and  _160
REMARK   65  A    between atoms: _160  and  _161
REMARK   66  A    between atoms: _160  and  _163
REMARK   67  A    between atoms: _163  and  _164
REMARK   68  A    between atoms: _174  and  _176
REMARK   69  A    between atoms: _176  and  _177
REMARK   70  A    between atoms: _176  and  _179
REMARK   71  A    between atoms: _179  and  _180
REMARK   72  A    between atoms: _185  and  _186
REMARK   73  A    between atoms: _188  and  _190
REMARK   74  A    between atoms: _190  and  _191
REMARK   75  A    between atoms: _193  and  _195
REMARK   76  A    between atoms: _195  and  _196
REMARK   77  A    between atoms: _198  and  _200
REMARK   78  A    between atoms: _200  and  _201
REMARK   79  A    between atoms: _203  and  _205
REMARK   80  A    between atoms: _205  and  _206
REMARK   81  A    between atoms: _205  and  _208
REMARK   82  A    between atoms: _208  and  _209
REMARK   83  A    between atoms: _215  and  _217
REMARK   84  A    between atoms: _217  and  _218
REMARK   85  A    between atoms: _217  and  _220
REMARK   86  A    between atoms: _220  and  _221
REMARK   87  A    between atoms: _226  and  _227
REMARK   88  A    between atoms: _229  and  _231
REMARK   89  A    between atoms: _231  and  _232
REMARK   90  A    between atoms: _231  and  _234
REMARK   91  A    between atoms: _234  and  _235
REMARK   92  A    between atoms: _237  and  _239
REMARK   93  A    between atoms: _239  and  _240
REMARK   94  A    between atoms: _242  and  _244
REMARK   95  A    between atoms: _244  and  _245
REMARK   96  A    between atoms: _248  and  _250
REMARK   97  A    between atoms: _250  and  _251
REMARK   98  A    between atoms: _250  and  _253
REMARK   99  A    between atoms: _253  and  _254
REMARK  100  A    between atoms: _257  and  _259
REMARK  101  A    between atoms: _259  and  _260
REMARK  102  A    between atoms: _259  and  _262
REMARK  103  A    between atoms: _265  and  _267
REMARK  104  A    between atoms: _267  and  _268
REMARK  105  A    between atoms: _267  and  _270
REMARK  106  A    between atoms: _270  and  _271
REMARK  107  A    between atoms: _276  and  _277
REMARK  108  A    between atoms: _279  and  _281
REMARK  109  A    between atoms: _281  and  _282
REMARK  110  A    between atoms: _281  and  _284
REMARK  111  A    between atoms: _284  and  _285
REMARK  112  A    between atoms: _290  and  _291
REMARK  113  A    between atoms: _293  and  _295
REMARK  114  A    between atoms: _295  and  _296
REMARK  115  A    between atoms: _295  and  _298
REMARK  116  A    between atoms: _298  and  _299
REMARK  117  A    between atoms: _299  and  _300
REMARK  118  A    between atoms: _303  and  _305
REMARK  119  A    between atoms: _305  and  _306
REMARK  120  A    between atoms: _305  and  _308
REMARK  121  A    between atoms: _308  and  _309
REMARK  122  A    between atoms: _311  and  _313
REMARK  123  A    between atoms: _313  and  _314
REMARK  124  A    between atoms: _317  and  _319
REMARK  125  A    between atoms: _319  and  _320
REMARK  126  A    between atoms: _322  and  _324
REMARK  127  A    between atoms: _324  and  _325
REMARK  128  A    between atoms: _328  and  _330
REMARK  129  A    between atoms: _330  and  _331
REMARK  130  A    between atoms: _330  and  _333
REMARK  131  A    between atoms: _333  and  _334
REMARK  132  A    between atoms: _336  and  _338
REMARK  133  A    between atoms: _338  and  _339
REMARK  134  A    between atoms: _338  and  _341
REMARK  135  A    between atoms: _344  and  _346
REMARK  136  A    between atoms: _346  and  _347
REMARK  137  A    between atoms: _346  and  _349
REMARK  138  A    between atoms: _349  and  _350
REMARK  139  A    between atoms: _353  and  _355
REMARK  140  A    between atoms: _355  and  _356
REMARK  141  A    between atoms: _355  and  _358
REMARK  142  A    between atoms: _358  and  _359
REMARK  143  A    between atoms: _364  and  _366
REMARK  144  A    between atoms: _366  and  _367
REMARK  145  A    between atoms: _366  and  _369
REMARK  146  A    between atoms: _369  and  _370
REMARK  147  A    between atoms: _370  and  _371
REMARK  148  A    between atoms: _374  and  _376
REMARK  149  A    between atoms: _376  and  _377
REMARK  150  A    between atoms: _376  and  _379
REMARK  151  A    between atoms: _379  and  _380
REMARK  152  A    between atoms: _390  and  _392
REMARK  153  A    between atoms: _392  and  _393
REMARK  154  A    between atoms: _392  and  _395
REMARK  155  A    between atoms: _395  and  _396
REMARK  156  A    between atoms: _401  and  _403
REMARK  157  A    between atoms: _403  and  _404
REMARK  158  A    between atoms: _403  and  _406
REMARK  159  A    between atoms: _409  and  _411
REMARK  160  A    between atoms: _411  and  _412
REMARK  161  A    between atoms: _411  and  _414
REMARK  162  A    between atoms: _414  and  _415
REMARK  163  A    between atoms: _419  and  _420
REMARK  164  A    between atoms: _425  and  _427
REMARK  165  A    between atoms: _427  and  _428
REMARK  166  A    between atoms: _427  and  _430
REMARK  167  A    between atoms: _430  and  _431
REMARK  168  A    between atoms: _431  and  _432
REMARK  169  A    between atoms: _437  and  _439
REMARK  170  A    between atoms: _439  and  _440
REMARK  171  A    between atoms: _439  and  _442
REMARK  172  A    between atoms: _442  and  _443
REMARK  173  A    between atoms: _443  and  _444
REMARK  174  A    between atoms: _447  and  _449
REMARK  175  A    between atoms: _449  and  _450
REMARK  176  A    between atoms: _449  and  _452
REMARK  177  A    between atoms: _452  and  _453
REMARK  178  A    between atoms: _455  and  _457
REMARK  179  A    between atoms: _457  and  _458
REMARK  180  A    between atoms: _457  and  _460
REMARK  181  A    between atoms: _460  and  _461
REMARK  182  A    between atoms: _464  and  _466
REMARK  183  A    between atoms: _466  and  _467
REMARK  184  A    between atoms: _466  and  _469
REMARK  185  A    between atoms: _469  and  _470
REMARK  186  A    between atoms: _476  and  _478
REMARK  187  A    between atoms: _478  and  _479
REMARK  188  A    between atoms: _478  and  _481
REMARK  189  A    between atoms: _481  and  _482
REMARK  190  A    between atoms: _482  and  _483
REMARK  191  A    between atoms: _483  and  _484
REMARK  192  A    between atoms: _493  and  _495
REMARK  193  A    between atoms: _495  and  _496
REMARK  194  A    between atoms: _495  and  _498
REMARK  195  A    between atoms: _498  and  _499
REMARK  196  A    between atoms: _505  and  _507
REMARK  197  A    between atoms: _507  and  _508
REMARK  198  A    between atoms: _507  and  _510
REMARK  199  A    between atoms: _510  and  _511
REMARK  200  A    between atoms: _513  and  _515
REMARK  201  A    between atoms: _515  and  _516
REMARK  202  A    between atoms: _515  and  _518
REMARK  203  A    between atoms: _518  and  _519
REMARK  204  A    between atoms: _519  and  _520
REMARK  205  A    between atoms: _523  and  _525
REMARK  206  A    between atoms: _525  and  _526
REMARK  207  A    between atoms: _525  and  _528
REMARK  208  A    between atoms: _528  and  _529
REMARK  209  A    between atoms: _531  and  _533
REMARK  210  A    between atoms: _533  and  _534
REMARK  211  A    between atoms: _533  and  _536
REMARK  212  A    between atoms: _536  and  _537
REMARK  213  A    between atoms: _542  and  _543
REMARK  214  A    between atoms: _545  and  _547
REMARK  215  A    between atoms: _547  and  _548
REMARK  216  A    between atoms: _547  and  _550
REMARK  217  A    between atoms: _550  and  _551
REMARK  218  A    between atoms: _557  and  _559
REMARK  219  A    between atoms: _559  and  _560
REMARK  220  A    between atoms: _559  and  _562
REMARK  221  A    between atoms: _562  and  _563
REMARK  222  A    between atoms: _566  and  _568
REMARK  223  A    between atoms: _568  and  _569
REMARK  224  A    between atoms: _568  and  _571
REMARK  225  A    between atoms: _574  and  _576
REMARK  226  A    between atoms: _576  and  _577
REMARK  227  A    between atoms: _576  and  _579
REMARK  228  A    between atoms: _579  and  _580
REMARK  229  A    between atoms: _585  and  _586
REMARK  230  A    between atoms: _588  and  _590
REMARK  231  A    between atoms: _590  and  _591
REMARK  232  A    between atoms: _593  and  _595
REMARK  233  A    between atoms: _595  and  _596
REMARK  234  A    between atoms: _595  and  _598
REMARK  235  A    between atoms: _601  and  _603
REMARK  236  A    between atoms: _603  and  _604
REMARK  237  A    between atoms: _603  and  _606
REMARK  238  A    between atoms: _606  and  _607
REMARK  239  A    between atoms: _611  and  _612
REMARK  240  A    between atoms: _617  and  _619
REMARK  241  A    between atoms: _619  and  _620
REMARK  242  A    between atoms: _619  and  _622
REMARK  243  A    between atoms: _622  and  _623
REMARK  244  A    between atoms: _626  and  _628
REMARK  245  A    between atoms: _628  and  _629
REMARK  246  A    between atoms: _628  and  _631
REMARK  247  A    between atoms: _631  and  _632
REMARK  248  A    between atoms: _642  and  _644
REMARK  249  A    between atoms: _644  and  _645
REMARK  250  A    between atoms: _644  and  _647
REMARK  251  A    between atoms: _647  and  _648
REMARK  252  A    between atoms: _648  and  _649
REMARK  253  A    between atoms: _652  and  _653
REMARK  254  A    between atoms: _658  and  _660
REMARK  255  A    between atoms: _660  and  _661
REMARK  256  A    between atoms: _660  and  _663
REMARK  257  A    between atoms: _663  and  _664
REMARK  258  A    between atoms: _669  and  _671
REMARK  259  A    between atoms: _671  and  _672
REMARK  260  A    between atoms: _674  and  _676
REMARK  261  A    between atoms: _676  and  _677
REMARK  262  A    between atoms: _676  and  _679
REMARK  263  A    between atoms: _679  and  _680
REMARK  264  A    between atoms: _685  and  _686
REMARK  265  A    between atoms: _688  and  _690
REMARK  266  A    between atoms: _690  and  _691
REMARK  267  A    between atoms: _690  and  _693
REMARK  268  A    between atoms: _693  and  _694
REMARK  269  A    between atoms: _694  and  _695
REMARK  270  A    between atoms: _698  and  _700
REMARK  271  A    between atoms: _700  and  _701
REMARK  272  A    between atoms: _700  and  _703
REMARK  273  A    between atoms: _703  and  _704
REMARK                            x       y       z     vdW  Elec       q    Type
REMARK                         _______ _______ _______ _____ _____    ______ ____
ROOT
ATOM      1  O   HOH     1      34.851  23.589  18.482  0.00  0.00    +0.000 OA
ENDROOT
TORSDOF 0
REMARK  Name = ../refined-set-2016/1q84/1q84_pocket.pdb
REMARK  273 active torsions:
REMARK  status: ('A' for Active; 'I' for Inactive)
REMARK    1  A    between atoms: _1  and  _3
REMARK    2  A    between atoms: _3  and  _4
REMARK    3  A    between atoms: _3  and  _6
REMARK    4  A    between atoms: _6  and  _7
REMARK    5  A    between atoms: _7  and  _8
REMARK    6  A    between atoms: _13  and  _15
REMARK    7  A    between atoms: _15  and  _16
REMARK    8  A    between atoms: _15  and  _18
REMARK    9  A    between atoms: _18  and  _19
REMARK   10  A    between atoms: _24  and  _25
REMARK   11  A    between atoms: _27  and  _29
REMARK   12  A    between atoms: _29  and  _30
REMARK   13  A    between atoms: _29  and  _32
REMARK   14  A    between atoms: _35  and  _37
REMARK   15  A    between atoms: _37  and  _38
REMARK   16  A    between atoms: _37  and  _40
REMARK   17  A    between atoms: _40  and  _41
REMARK   18  A    between atoms: _44  and  _46
REMARK   19  A    between atoms: _46  and  _47
REMARK   20  A    between atoms: _46  and  _49
REMARK   21  A    between atoms: _49  and  _50
REMARK   22  A    between atoms: _53  and  _55
REMARK   23  A    between atoms: _55  and  _56
REMARK   24  A    between atoms: _55  and  _58
REMARK   25  A    between atoms: _58  and  _59
REMARK   26  A    between atoms: _62  and  _64
REMARK   27  A    between atoms: _64  and  _65
REMARK   28  A    between atoms: _64  and  _67
REMARK   29  A    between atoms: _67  and  _68
REMARK   30  A    between atoms: _73  and  _74
REMARK   31  A    between atoms: _76  and  _78
REMARK   32  A    between atoms: _78  and  _79
REMARK   33  A    between atoms: _78  and  _81
REMARK   34  A    between atoms: _81  and  _82
REMARK   35  A    between atoms: _88  and  _90
REMARK   36  A    between atoms: _90  and  _91
REMARK   37  A    between atoms: _90  and  _93
REMARK   38  A    between atoms: _93  and  _94
REMARK   39  A    between atoms: _94  and  _95
REMARK   40  A    between atoms: _98  and  _100
REMARK   41  A    between atoms: _100  and  _101
REMARK   42  A    between atoms: _103  and  _105
REMARK   43  A    between atoms: _105  and  _106
REMARK   44  A    between atoms: _105  and  _108
REMARK   45  A    between atoms: _108  and  _109
REMARK   46  A    between atoms: _112  and  _114
REMARK   47  A    between atoms: _114  and  _115
REMARK   48  A    between atoms: _114  and  _117
REMARK   49  A    between atoms: _117  and  _118
REMARK   50  A    between atoms: _118  and  _119
REMARK   51  A    between atoms: _122  and  _124
REMARK   52  A    between atoms: _124  and  _125
REMARK   53  A    between atoms: _124  and  _127
REMARK   54  A    between atoms: _127  and  _128
REMARK   55  A    between atoms: _128  and  _129
REMARK   56  A    between atoms: _131  and  _133
REMARK   57  A    between atoms: _133  and  _134
REMARK   58  A    between atoms: _133  and  _136
REMARK   59  A    between atoms: _136  and  _137
REMARK   60  A    between atoms: _147  and  _149
REMARK   61  A    between atoms: _149  and  _150
REMARK   62  A    between atoms: _149  and  _152
REMARK   63  A    between atoms: _152  and  _153
REMARK   64  A    between atoms: _158  and  _160
REMARK   65  A    between atoms: _160  and  _161
REMARK   66  A    between atoms: _160  and  _163
REMARK   67  A    between atoms: _163  and  _164
REMARK   68  A    between atoms: _174  and  _176
REMARK   69  A    between atoms: _176  and  _177
REMARK   70  A    between atoms: _176  and  _179
REMARK   71  A    between atoms: _179  and  _180
REMARK   72  A    between atoms: _185  and  _186
REMARK   73  A    between atoms: _188  and  _190
REMARK   74  A    between atoms: _190  and  _191
REMARK   75  A    between atoms: _193  and  _195
REMARK   76  A    between atoms: _195  and  _196
REMARK   77  A    between atoms: _198  and  _200
REMARK   78  A    between atoms: _200  and  _201
REMARK   79  A    between atoms: _203  and  _205
REMARK   80  A    between atoms: _205  and  _206
REMARK   81  A    between atoms: _205  and  _208
REMARK   82  A    between atoms: _208  and  _209
REMARK   83  A    between atoms: _215  and  _217
REMARK   84  A    between atoms: _217  and  _218
REMARK   85  A    between atoms: _217  and  _220
REMARK   86  A    between atoms: _220  and  _221
REMARK   87  A    between atoms: _226  and  _227
REMARK   88  A    between atoms: _229  and  _231
REMARK   89  A    between atoms: _231  and  _232
REMARK   90  A    between atoms: _231  and  _234
REMARK   91  A    between atoms: _234  and  _235
REMARK   92  A    between atoms: _237  and  _239
REMARK   93  A    between atoms: _239  and  _240
REMARK   94  A    between atoms: _242  and  _244
REMARK   95  A    between atoms: _244  and  _245
REMARK   96  A    between atoms: _248  and  _250
REMARK   97  A    between atoms: _250  and  _251
REMARK   98  A    between atoms: _250  and  _253
REMARK   99  A    between atoms: _253  and  _254
REMARK  100  A    between atoms: _257  and  _259
REMARK  101  A    between atoms: _259  and  _260
REMARK  102  A    between atoms: _259  and  _262
REMARK  103  A    between atoms: _265  and  _267
REMARK  104  A    between atoms: _267  and  _268
REMARK  105  A    between atoms: _267  and  _270
REMARK  106  A    between atoms: _270  and  _271
REMARK  107  A    between atoms: _276  and  _277
REMARK  108  A    between atoms: _279  and  _281
REMARK  109  A    between atoms: _281  and  _282
REMARK  110  A    between atoms: _281  and  _284
REMARK  111  A    between atoms: _284  and  _285
REMARK  112  A    between atoms: _290  and  _291
REMARK  113  A    between atoms: _293  and  _295
REMARK  114  A    between atoms: _295  and  _296
REMARK  115  A    between atoms: _295  and  _298
REMARK  116  A    between atoms: _298  and  _299
REMARK  117  A    between atoms: _299  and  _300
REMARK  118  A    between atoms: _303  and  _305
REMARK  119  A    between atoms: _305  and  _306
REMARK  120  A    between atoms: _305  and  _308
REMARK  121  A    between atoms: _308  and  _309
REMARK  122  A    between atoms: _311  and  _313
REMARK  123  A    between atoms: _313  and  _314
REMARK  124  A    between atoms: _317  and  _319
REMARK  125  A    between atoms: _319  and  _320
REMARK  126  A    between atoms: _322  and  _324
REMARK  127  A    between atoms: _324  and  _325
REMARK  128  A    between atoms: _328  and  _330
REMARK  129  A    between atoms: _330  and  _331
REMARK  130  A    between atoms: _330  and  _333
REMARK  131  A    between atoms: _333  and  _334
REMARK  132  A    between atoms: _336  and  _338
REMARK  133  A    between atoms: _338  and  _339
REMARK  134  A    between atoms: _338  and  _341
REMARK  135  A    between atoms: _344  and  _346
REMARK  136  A    between atoms: _346  and  _347
REMARK  137  A    between atoms: _346  and  _349
REMARK  138  A    between atoms: _349  and  _350
REMARK  139  A    between atoms: _353  and  _355
REMARK  140  A    between atoms: _355  and  _356
REMARK  141  A    between atoms: _355  and  _358
REMARK  142  A    between atoms: _358  and  _359
REMARK  143  A    between atoms: _364  and  _366
REMARK  144  A    between atoms: _366  and  _367
REMARK  145  A    between atoms: _366  and  _369
REMARK  146  A    between atoms: _369  and  _370
REMARK  147  A    between atoms: _370  and  _371
REMARK  148  A    between atoms: _374  and  _376
REMARK  149  A    between atoms: _376  and  _377
REMARK  150  A    between atoms: _376  and  _379
REMARK  151  A    between atoms: _379  and  _380
REMARK  152  A    between atoms: _390  and  _392
REMARK  153  A    between atoms: _392  and  _393
REMARK  154  A    between atoms: _392  and  _395
REMARK  155  A    between atoms: _395  and  _396
REMARK  156  A    between atoms: _401  and  _403
REMARK  157  A    between atoms: _403  and  _404
REMARK  158  A    between atoms: _403  and  _406
REMARK  159  A    between atoms: _409  and  _411
REMARK  160  A    between atoms: _411  and  _412
REMARK  161  A    between atoms: _411  and  _414
REMARK  162  A    between atoms: _414  and  _415
REMARK  163  A    between atoms: _419  and  _420
REMARK  164  A    between atoms: _425  and  _427
REMARK  165  A    between atoms: _427  and  _428
REMARK  166  A    between atoms: _427  and  _430
REMARK  167  A    between atoms: _430  and  _431
REMARK  168  A    between atoms: _431  and  _432
REMARK  169  A    between atoms: _437  and  _439
REMARK  170  A    between atoms: _439  and  _440
REMARK  171  A    between atoms: _439  and  _442
REMARK  172  A    between atoms: _442  and  _443
REMARK  173  A    between atoms: _443  and  _444
REMARK  174  A    between atoms: _447  and  _449
REMARK  175  A    between atoms: _449  and  _450
REMARK  176  A    between atoms: _449  and  _452
REMARK  177  A    between atoms: _452  and  _453
REMARK  178  A    between atoms: _455  and  _457
REMARK  179  A    between atoms: _457  and  _458
REMARK  180  A    between atoms: _457  and  _460
REMARK  181  A    between atoms: _460  and  _461
REMARK  182  A    between atoms: _464  and  _466
REMARK  183  A    between atoms: _466  and  _467
REMARK  184  A    between atoms: _466  and  _469
REMARK  185  A    between atoms: _469  and  _470
REMARK  186  A    between atoms: _476  and  _478
REMARK  187  A    between atoms: _478  and  _479
REMARK  188  A    between atoms: _478  and  _481
REMARK  189  A    between atoms: _481  and  _482
REMARK  190  A    between atoms: _482  and  _483
REMARK  191  A    between atoms: _483  and  _484
REMARK  192  A    between atoms: _493  and  _495
REMARK  193  A    between atoms: _495  and  _496
REMARK  194  A    between atoms: _495  and  _498
REMARK  195  A    between atoms: _498  and  _499
REMARK  196  A    between atoms: _505  and  _507
REMARK  197  A    between atoms: _507  and  _508
REMARK  198  A    between atoms: _507  and  _510
REMARK  199  A    between atoms: _510  and  _511
REMARK  200  A    between atoms: _513  and  _515
REMARK  201  A    between atoms: _515  and  _516
REMARK  202  A    between atoms: _515  and  _518
REMARK  203  A    between atoms: _518  and  _519
REMARK  204  A    between atoms: _519  and  _520
REMARK  205  A    between atoms: _523  and  _525
REMARK  206  A    between atoms: _525  and  _526
REMARK  207  A    between atoms: _525  and  _528
REMARK  208  A    between atoms: _528  and  _529
REMARK  209  A    between atoms: _531  and  _533
REMARK  210  A    between atoms: _533  and  _534
REMARK  211  A    between atoms: _533  and  _536
REMARK  212  A    between atoms: _536  and  _537
REMARK  213  A    between atoms: _542  and  _543
REMARK  214  A    between atoms: _545  and  _547
REMARK  215  A    between atoms: _547  and  _548
REMARK  216  A    between atoms: _547  and  _550
REMARK  217  A    between atoms: _550  and  _551
REMARK  218  A    between atoms: _557  and  _559
REMARK  219  A    between atoms: _559  and  _560
REMARK  220  A    between atoms: _559  and  _562
REMARK  221  A    between atoms: _562  and  _563
REMARK  222  A    between atoms: _566  and  _568
REMARK  223  A    between atoms: _568  and  _569
REMARK  224  A    between atoms: _568  and  _571
REMARK  225  A    between atoms: _574  and  _576
REMARK  226  A    between atoms: _576  and  _577
REMARK  227  A    between atoms: _576  and  _579
REMARK  228  A    between atoms: _579  and  _580
REMARK  229  A    between atoms: _585  and  _586
REMARK  230  A    between atoms: _588  and  _590
REMARK  231  A    between atoms: _590  and  _591
REMARK  232  A    between atoms: _593  and  _595
REMARK  233  A    between atoms: _595  and  _596
REMARK  234  A    between atoms: _595  and  _598
REMARK  235  A    between atoms: _601  and  _603
REMARK  236  A    between atoms: _603  and  _604
REMARK  237  A    between atoms: _603  and  _606
REMARK  238  A    between atoms: _606  and  _607
REMARK  239  A    between atoms: _611  and  _612
REMARK  240  A    between atoms: _617  and  _619
REMARK  241  A    between atoms: _619  and  _620
REMARK  242  A    between atoms: _619  and  _622
REMARK  243  A    between atoms: _622  and  _623
REMARK  244  A    between atoms: _626  and  _628
REMARK  245  A    between atoms: _628  and  _629
REMARK  246  A    between atoms: _628  and  _631
REMARK  247  A    between atoms: _631  and  _632
REMARK  248  A    between atoms: _642  and  _644
REMARK  249  A    between atoms: _644  and  _645
REMARK  250  A    between atoms: _644  and  _647
REMARK  251  A    between atoms: _647  and  _648
REMARK  252  A    between atoms: _648  and  _649
REMARK  253  A    between atoms: _652  and  _653
REMARK  254  A    between atoms: _658  and  _660
REMARK  255  A    between atoms: _660  and  _661
REMARK  256  A    between atoms: _660  and  _663
REMARK  257  A    between atoms: _663  and  _664
REMARK  258  A    between atoms: _669  and  _671
REMARK  259  A    between atoms: _671  and  _672
REMARK  260  A    between atoms: _674  and  _676
REMARK  261  A    between atoms: _676  and  _677
REMARK  262  A    between atoms: _676  and  _679
REMARK  263  A    between atoms: _679  and  _680
REMARK  264  A    between atoms: _685  and  _686
REMARK  265  A    between atoms: _688  and  _690
REMARK  266  A    between atoms: _690  and  _691
REMARK  267  A    between atoms: _690  and  _693
REMARK  268  A    between atoms: _693  and  _694
REMARK  269  A    between atoms: _694  and  _695
REMARK  270  A    between atoms: _698  and  _700
REMARK  271  A    between atoms: _700  and  _701
REMARK  272  A    between atoms: _700  and  _703
REMARK  273  A    between atoms: _703  and  _704
REMARK                            x       y       z     vdW  Elec       q    Type
REMARK                         _______ _______ _______ _____ _____    ______ ____
ROOT
ATOM      1  O   HOH     1      35.928  19.677   4.400  0.00  0.00    +0.000 OA
ENDROOT
TORSDOF 0
REMARK  Name = ../refined-set-2016/1q84/1q84_pocket.pdb
REMARK  273 active torsions:
REMARK  status: ('A' for Active; 'I' for Inactive)
REMARK    1  A    between atoms: _1  and  _3
REMARK    2  A    between atoms: _3  and  _4
REMARK    3  A    between atoms: _3  and  _6
REMARK    4  A    between atoms: _6  and  _7
REMARK    5  A    between atoms: _7  and  _8
REMARK    6  A    between atoms: _13  and  _15
REMARK    7  A    between atoms: _15  and  _16
REMARK    8  A    between atoms: _15  and  _18
REMARK    9  A    between atoms: _18  and  _19
REMARK   10  A    between atoms: _24  and  _25
REMARK   11  A    between atoms: _27  and  _29
REMARK   12  A    between atoms: _29  and  _30
REMARK   13  A    between atoms: _29  and  _32
REMARK   14  A    between atoms: _35  and  _37
REMARK   15  A    between atoms: _37  and  _38
REMARK   16  A    between atoms: _37  and  _40
REMARK   17  A    between atoms: _40  and  _41
REMARK   18  A    between atoms: _44  and  _46
REMARK   19  A    between atoms: _46  and  _47
REMARK   20  A    between atoms: _46  and  _49
REMARK   21  A    between atoms: _49  and  _50
REMARK   22  A    between atoms: _53  and  _55
REMARK   23  A    between atoms: _55  and  _56
REMARK   24  A    between atoms: _55  and  _58
REMARK   25  A    between atoms: _58  and  _59
REMARK   26  A    between atoms: _62  and  _64
REMARK   27  A    between atoms: _64  and  _65
REMARK   28  A    between atoms: _64  and  _67
REMARK   29  A    between atoms: _67  and  _68
REMARK   30  A    between atoms: _73  and  _74
REMARK   31  A    between atoms: _76  and  _78
REMARK   32  A    between atoms: _78  and  _79
REMARK   33  A    between atoms: _78  and  _81
REMARK   34  A    between atoms: _81  and  _82
REMARK   35  A    between atoms: _88  and  _90
REMARK   36  A    between atoms: _90  and  _91
REMARK   37  A    between atoms: _90  and  _93
REMARK   38  A    between atoms: _93  and  _94
REMARK   39  A    between atoms: _94  and  _95
REMARK   40  A    between atoms: _98  and  _100
REMARK   41  A    between atoms: _100  and  _101
REMARK   42  A    between atoms: _103  and  _105
REMARK   43  A    between atoms: _105  and  _106
REMARK   44  A    between atoms: _105  and  _108
REMARK   45  A    between atoms: _108  and  _109
REMARK   46  A    between atoms: _112  and  _114
REMARK   47  A    between atoms: _114  and  _115
REMARK   48  A    between atoms: _114  and  _117
REMARK   49  A    between atoms: _117  and  _118
REMARK   50  A    between atoms: _118  and  _119
REMARK   51  A    between atoms: _122  and  _124
REMARK   52  A    between atoms: _124  and  _125
REMARK   53  A    between atoms: _124  and  _127
REMARK   54  A    between atoms: _127  and  _128
REMARK   55  A    between atoms: _128  and  _129
REMARK   56  A    between atoms: _131  and  _133
REMARK   57  A    between atoms: _133  and  _134
REMARK   58  A    between atoms: _133  and  _136
REMARK   59  A    between atoms: _136  and  _137
REMARK   60  A    between atoms: _147  and  _149
REMARK   61  A    between atoms: _149  and  _150
REMARK   62  A    between atoms: _149  and  _152
REMARK   63  A    between atoms: _152  and  _153
REMARK   64  A    between atoms: _158  and  _160
REMARK   65  A    between atoms: _160  and  _161
REMARK   66  A    between atoms: _160  and  _163
REMARK   67  A    between atoms: _163  and  _164
REMARK   68  A    between atoms: _174  and  _176
REMARK   69  A    between atoms: _176  and  _177
REMARK   70  A    between atoms: _176  and  _179
REMARK   71  A    between atoms: _179  and  _180
REMARK   72  A    between atoms: _185  and  _186
REMARK   73  A    between atoms: _188  and  _190
REMARK   74  A    between atoms: _190  and  _191
REMARK   75  A    between atoms: _193  and  _195
REMARK   76  A    between atoms: _195  and  _196
REMARK   77  A    between atoms: _198  and  _200
REMARK   78  A    between atoms: _200  and  _201
REMARK   79  A    between atoms: _203  and  _205
REMARK   80  A    between atoms: _205  and  _206
REMARK   81  A    between atoms: _205  and  _208
REMARK   82  A    between atoms: _208  and  _209
REMARK   83  A    between atoms: _215  and  _217
REMARK   84  A    between atoms: _217  and  _218
REMARK   85  A    between atoms: _217  and  _220
REMARK   86  A    between atoms: _220  and  _221
REMARK   87  A    between atoms: _226  and  _227
REMARK   88  A    between atoms: _229  and  _231
REMARK   89  A    between atoms: _231  and  _232
REMARK   90  A    between atoms: _231  and  _234
REMARK   91  A    between atoms: _234  and  _235
REMARK   92  A    between atoms: _237  and  _239
REMARK   93  A    between atoms: _239  and  _240
REMARK   94  A    between atoms: _242  and  _244
REMARK   95  A    between atoms: _244  and  _245
REMARK   96  A    between atoms: _248  and  _250
REMARK   97  A    between atoms: _250  and  _251
REMARK   98  A    between atoms: _250  and  _253
REMARK   99  A    between atoms: _253  and  _254
REMARK  100  A    between atoms: _257  and  _259
REMARK  101  A    between atoms: _259  and  _260
REMARK  102  A    between atoms: _259  and  _262
REMARK  103  A    between atoms: _265  and  _267
REMARK  104  A    between atoms: _267  and  _268
REMARK  105  A    between atoms: _267  and  _270
REMARK  106  A    between atoms: _270  and  _271
REMARK  107  A    between atoms: _276  and  _277
REMARK  108  A    between atoms: _279  and  _281
REMARK  109  A    between atoms: _281  and  _282
REMARK  110  A    between atoms: _281  and  _284
REMARK  111  A    between atoms: _284  and  _285
REMARK  112  A    between atoms: _290  and  _291
REMARK  113  A    between atoms: _293  and  _295
REMARK  114  A    between atoms: _295  and  _296
REMARK  115  A    between atoms: _295  and  _298
REMARK  116  A    between atoms: _298  and  _299
REMARK  117  A    between atoms: _299  and  _300
REMARK  118  A    between atoms: _303  and  _305
REMARK  119  A    between atoms: _305  and  _306
REMARK  120  A    between atoms: _305  and  _308
REMARK  121  A    between atoms: _308  and  _309
REMARK  122  A    between atoms: _311  and  _313
REMARK  123  A    between atoms: _313  and  _314
REMARK  124  A    between atoms: _317  and  _319
REMARK  125  A    between atoms: _319  and  _320
REMARK  126  A    between atoms: _322  and  _324
REMARK  127  A    between atoms: _324  and  _325
REMARK  128  A    between atoms: _328  and  _330
REMARK  129  A    between atoms: _330  and  _331
REMARK  130  A    between atoms: _330  and  _333
REMARK  131  A    between atoms: _333  and  _334
REMARK  132  A    between atoms: _336  and  _338
REMARK  133  A    between atoms: _338  and  _339
REMARK  134  A    between atoms: _338  and  _341
REMARK  135  A    between atoms: _344  and  _346
REMARK  136  A    between atoms: _346  and  _347
REMARK  137  A    between atoms: _346  and  _349
REMARK  138  A    between atoms: _349  and  _350
REMARK  139  A    between atoms: _353  and  _355
REMARK  140  A    between atoms: _355  and  _356
REMARK  141  A    between atoms: _355  and  _358
REMARK  142  A    between atoms: _358  and  _359
REMARK  143  A    between atoms: _364  and  _366
REMARK  144  A    between atoms: _366  and  _367
REMARK  145  A    between atoms: _366  and  _369
REMARK  146  A    between atoms: _369  and  _370
REMARK  147  A    between atoms: _370  and  _371
REMARK  148  A    between atoms: _374  and  _376
REMARK  149  A    between atoms: _376  and  _377
REMARK  150  A    between atoms: _376  and  _379
REMARK  151  A    between atoms: _379  and  _380
REMARK  152  A    between atoms: _390  and  _392
REMARK  153  A    between atoms: _392  and  _393
REMARK  154  A    between atoms: _392  and  _395
REMARK  155  A    between atoms: _395  and  _396
REMARK  156  A    between atoms: _401  and  _403
REMARK  157  A    between atoms: _403  and  _404
REMARK  158  A    between atoms: _403  and  _406
REMARK  159  A    between atoms: _409  and  _411
REMARK  160  A    between atoms: _411  and  _412
REMARK  161  A    between atoms: _411  and  _414
REMARK  162  A    between atoms: _414  and  _415
REMARK  163  A    between atoms: _419  and  _420
REMARK  164  A    between atoms: _425  and  _427
REMARK  165  A    between atoms: _427  and  _428
REMARK  166  A    between atoms: _427  and  _430
REMARK  167  A    between atoms: _430  and  _431
REMARK  168  A    between atoms: _431  and  _432
REMARK  169  A    between atoms: _437  and  _439
REMARK  170  A    between atoms: _439  and  _440
REMARK  171  A    between atoms: _439  and  _442
REMARK  172  A    between atoms: _442  and  _443
REMARK  173  A    between atoms: _443  and  _444
REMARK  174  A    between atoms: _447  and  _449
REMARK  175  A    between atoms: _449  and  _450
REMARK  176  A    between atoms: _449  and  _452
REMARK  177  A    between atoms: _452  and  _453
REMARK  178  A    between atoms: _455  and  _457
REMARK  179  A    between atoms: _457  and  _458
REMARK  180  A    between atoms: _457  and  _460
REMARK  181  A    between atoms: _460  and  _461
REMARK  182  A    between atoms: _464  and  _466
REMARK  183  A    between atoms: _466  and  _467
REMARK  184  A    between atoms: _466  and  _469
REMARK  185  A    between atoms: _469  and  _470
REMARK  186  A    between atoms: _476  and  _478
REMARK  187  A    between atoms: _478  and  _479
REMARK  188  A    between atoms: _478  and  _481
REMARK  189  A    between atoms: _481  and  _482
REMARK  190  A    between atoms: _482  and  _483
REMARK  191  A    between atoms: _483  and  _484
REMARK  192  A    between atoms: _493  and  _495
REMARK  193  A    between atoms: _495  and  _496
REMARK  194  A    between atoms: _495  and  _498
REMARK  195  A    between atoms: _498  and  _499
REMARK  196  A    between atoms: _505  and  _507
REMARK  197  A    between atoms: _507  and  _508
REMARK  198  A    between atoms: _507  and  _510
REMARK  199  A    between atoms: _510  and  _511
REMARK  200  A    between atoms: _513  and  _515
REMARK  201  A    between atoms: _515  and  _516
REMARK  202  A    between atoms: _515  and  _518
REMARK  203  A    between atoms: _518  and  _519
REMARK  204  A    between atoms: _519  and  _520
REMARK  205  A    between atoms: _523  and  _525
REMARK  206  A    between atoms: _525  and  _526
REMARK  207  A    between atoms: _525  and  _528
REMARK  208  A    between atoms: _528  and  _529
REMARK  209  A    between atoms: _531  and  _533
REMARK  210  A    between atoms: _533  and  _534
REMARK  211  A    between atoms: _533  and  _536
REMARK  212  A    between atoms: _536  and  _537
REMARK  213  A    between atoms: _542  and  _543
REMARK  214  A    between atoms: _545  and  _547
REMARK  215  A    between atoms: _547  and  _548
REMARK  216  A    between atoms: _547  and  _550
REMARK  217  A    between atoms: _550  and  _551
REMARK  218  A    between atoms: _557  and  _559
REMARK  219  A    between atoms: _559  and  _560
REMARK  220  A    between atoms: _559  and  _562
REMARK  221  A    between atoms: _562  and  _563
REMARK  222  A    between atoms: _566  and  _568
REMARK  223  A    between atoms: _568  and  _569
REMARK  224  A    between atoms: _568  and  _571
REMARK  225  A    between atoms: _574  and  _576
REMARK  226  A    between atoms: _576  and  _577
REMARK  227  A    between atoms: _576  and  _579
REMARK  228  A    between atoms: _579  and  _580
REMARK  229  A    between atoms: _585  and  _586
REMARK  230  A    between atoms: _588  and  _590
REMARK  231  A    between atoms: _590  and  _591
REMARK  232  A    between atoms: _593  and  _595
REMARK  233  A    between atoms: _595  and  _596
REMARK  234  A    between atoms: _595  and  _598
REMARK  235  A    between atoms: _601  and  _603
REMARK  236  A    between atoms: _603  and  _604
REMARK  237  A    between atoms: _603  and  _606
REMARK  238  A    between atoms: _606  and  _607
REMARK  239  A    between atoms: _611  and  _612
REMARK  240  A    between atoms: _617  and  _619
REMARK  241  A    between atoms: _619  and  _620
REMARK  242  A    between atoms: _619  and  _622
REMARK  243  A    between atoms: _622  and  _623
REMARK  244  A    between atoms: _626  and  _628
REMARK  245  A    between atoms: _628  and  _629
REMARK  246  A    between atoms: _628  and  _631
REMARK  247  A    between atoms: _631  and  _632
REMARK  248  A    between atoms: _642  and  _644
REMARK  249  A    between atoms: _644  and  _645
REMARK  250  A    between atoms: _644  and  _647
REMARK  251  A    between atoms: _647  and  _648
REMARK  252  A    between atoms: _648  and  _649
REMARK  253  A    between atoms: _652  and  _653
REMARK  254  A    between atoms: _658  and  _660
REMARK  255  A    between atoms: _660  and  _661
REMARK  256  A    between atoms: _660  and  _663
REMARK  257  A    between atoms: _663  and  _664
REMARK  258  A    between atoms: _669  and  _671
REMARK  259  A    between atoms: _671  and  _672
REMARK  260  A    between atoms: _674  and  _676
REMARK  261  A    between atoms: _676  and  _677
REMARK  262  A    between atoms: _676  and  _679
REMARK  263  A    between atoms: _679  and  _680
REMARK  264  A    between atoms: _685  and  _686
REMARK  265  A    between atoms: _688  and  _690
REMARK  266  A    between atoms: _690  and  _691
REMARK  267  A    between atoms: _690  and  _693
REMARK  268  A    between atoms: _693  and  _694
REMARK  269  A    between atoms: _694  and  _695
REMARK  270  A    between atoms: _698  and  _700
REMARK  271  A    between atoms: _700  and  _701
REMARK  272  A    between atoms: _700  and  _703
REMARK  273  A    between atoms: _703  and  _704
REMARK                            x       y       z     vdW  Elec       q    Type
REMARK                         _______ _______ _______ _____ _____    ______ ____
ROOT
ATOM      1  O   HOH     1      29.973  15.576  12.845  0.00  0.00    +0.000 OA
ENDROOT
TORSDOF 0
REMARK  Name = ../refined-set-2016/1q84/1q84_pocket.pdb
REMARK  273 active torsions:
REMARK  status: ('A' for Active; 'I' for Inactive)
REMARK    1  A    between atoms: _1  and  _3
REMARK    2  A    between atoms: _3  and  _4
REMARK    3  A    between atoms: _3  and  _6
REMARK    4  A    between atoms: _6  and  _7
REMARK    5  A    between atoms: _7  and  _8
REMARK    6  A    between atoms: _13  and  _15
REMARK    7  A    between atoms: _15  and  _16
REMARK    8  A    between atoms: _15  and  _18
REMARK    9  A    between atoms: _18  and  _19
REMARK   10  A    between atoms: _24  and  _25
REMARK   11  A    between atoms: _27  and  _29
REMARK   12  A    between atoms: _29  and  _30
REMARK   13  A    between atoms: _29  and  _32
REMARK   14  A    between atoms: _35  and  _37
REMARK   15  A    between atoms: _37  and  _38
REMARK   16  A    between atoms: _37  and  _40
REMARK   17  A    between atoms: _40  and  _41
REMARK   18  A    between atoms: _44  and  _46
REMARK   19  A    between atoms: _46  and  _47
REMARK   20  A    between atoms: _46  and  _49
REMARK   21  A    between atoms: _49  and  _50
REMARK   22  A    between atoms: _53  and  _55
REMARK   23  A    between atoms: _55  and  _56
REMARK   24  A    between atoms: _55  and  _58
REMARK   25  A    between atoms: _58  and  _59
REMARK   26  A    between atoms: _62  and  _64
REMARK   27  A    between atoms: _64  and  _65
REMARK   28  A    between atoms: _64  and  _67
REMARK   29  A    between atoms: _67  and  _68
REMARK   30  A    between atoms: _73  and  _74
REMARK   31  A    between atoms: _76  and  _78
REMARK   32  A    between atoms: _78  and  _79
REMARK   33  A    between atoms: _78  and  _81
REMARK   34  A    between atoms: _81  and  _82
REMARK   35  A    between atoms: _88  and  _90
REMARK   36  A    between atoms: _90  and  _91
REMARK   37  A    between atoms: _90  and  _93
REMARK   38  A    between atoms: _93  and  _94
REMARK   39  A    between atoms: _94  and  _95
REMARK   40  A    between atoms: _98  and  _100
REMARK   41  A    between atoms: _100  and  _101
REMARK   42  A    between atoms: _103  and  _105
REMARK   43  A    between atoms: _105  and  _106
REMARK   44  A    between atoms: _105  and  _108
REMARK   45  A    between atoms: _108  and  _109
REMARK   46  A    between atoms: _112  and  _114
REMARK   47  A    between atoms: _114  and  _115
REMARK   48  A    between atoms: _114  and  _117
REMARK   49  A    between atoms: _117  and  _118
REMARK   50  A    between atoms: _118  and  _119
REMARK   51  A    between atoms: _122  and  _124
REMARK   52  A    between atoms: _124  and  _125
REMARK   53  A    between atoms: _124  and  _127
REMARK   54  A    between atoms: _127  and  _128
REMARK   55  A    between atoms: _128  and  _129
REMARK   56  A    between atoms: _131  and  _133
REMARK   57  A    between atoms: _133  and  _134
REMARK   58  A    between atoms: _133  and  _136
REMARK   59  A    between atoms: _136  and  _137
REMARK   60  A    between atoms: _147  and  _149
REMARK   61  A    between atoms: _149  and  _150
REMARK   62  A    between atoms: _149  and  _152
REMARK   63  A    between atoms: _152  and  _153
REMARK   64  A    between atoms: _158  and  _160
REMARK   65  A    between atoms: _160  and  _161
REMARK   66  A    between atoms: _160  and  _163
REMARK   67  A    between atoms: _163  and  _164
REMARK   68  A    between atoms: _174  and  _176
REMARK   69  A    between atoms: _176  and  _177
REMARK   70  A    between atoms: _176  and  _179
REMARK   71  A    between atoms: _179  and  _180
REMARK   72  A    between atoms: _185  and  _186
REMARK   73  A    between atoms: _188  and  _190
REMARK   74  A    between atoms: _190  and  _191
REMARK   75  A    between atoms: _193  and  _195
REMARK   76  A    between atoms: _195  and  _196
REMARK   77  A    between atoms: _198  and  _200
REMARK   78  A    between atoms: _200  and  _201
REMARK   79  A    between atoms: _203  and  _205
REMARK   80  A    between atoms: _205  and  _206
REMARK   81  A    between atoms: _205  and  _208
REMARK   82  A    between atoms: _208  and  _209
REMARK   83  A    between atoms: _215  and  _217
REMARK   84  A    between atoms: _217  and  _218
REMARK   85  A    between atoms: _217  and  _220
REMARK   86  A    between atoms: _220  and  _221
REMARK   87  A    between atoms: _226  and  _227
REMARK   88  A    between atoms: _229  and  _231
REMARK   89  A    between atoms: _231  and  _232
REMARK   90  A    between atoms: _231  and  _234
REMARK   91  A    between atoms: _234  and  _235
REMARK   92  A    between atoms: _237  and  _239
REMARK   93  A    between atoms: _239  and  _240
REMARK   94  A    between atoms: _242  and  _244
REMARK   95  A    between atoms: _244  and  _245
REMARK   96  A    between atoms: _248  and  _250
REMARK   97  A    between atoms: _250  and  _251
REMARK   98  A    between atoms: _250  and  _253
REMARK   99  A    between atoms: _253  and  _254
REMARK  100  A    between atoms: _257  and  _259
REMARK  101  A    between atoms: _259  and  _260
REMARK  102  A    between atoms: _259  and  _262
REMARK  103  A    between atoms: _265  and  _267
REMARK  104  A    between atoms: _267  and  _268
REMARK  105  A    between atoms: _267  and  _270
REMARK  106  A    between atoms: _270  and  _271
REMARK  107  A    between atoms: _276  and  _277
REMARK  108  A    between atoms: _279  and  _281
REMARK  109  A    between atoms: _281  and  _282
REMARK  110  A    between atoms: _281  and  _284
REMARK  111  A    between atoms: _284  and  _285
REMARK  112  A    between atoms: _290  and  _291
REMARK  113  A    between atoms: _293  and  _295
REMARK  114  A    between atoms: _295  and  _296
REMARK  115  A    between atoms: _295  and  _298
REMARK  116  A    between atoms: _298  and  _299
REMARK  117  A    between atoms: _299  and  _300
REMARK  118  A    between atoms: _303  and  _305
REMARK  119  A    between atoms: _305  and  _306
REMARK  120  A    between atoms: _305  and  _308
REMARK  121  A    between atoms: _308  and  _309
REMARK  122  A    between atoms: _311  and  _313
REMARK  123  A    between atoms: _313  and  _314
REMARK  124  A    between atoms: _317  and  _319
REMARK  125  A    between atoms: _319  and  _320
REMARK  126  A    between atoms: _322  and  _324
REMARK  127  A    between atoms: _324  and  _325
REMARK  128  A    between atoms: _328  and  _330
REMARK  129  A    between atoms: _330  and  _331
REMARK  130  A    between atoms: _330  and  _333
REMARK  131  A    between atoms: _333  and  _334
REMARK  132  A    between atoms: _336  and  _338
REMARK  133  A    between atoms: _338  and  _339
REMARK  134  A    between atoms: _338  and  _341
REMARK  135  A    between atoms: _344  and  _346
REMARK  136  A    between atoms: _346  and  _347
REMARK  137  A    between atoms: _346  and  _349
REMARK  138  A    between atoms: _349  and  _350
REMARK  139  A    between atoms: _353  and  _355
REMARK  140  A    between atoms: _355  and  _356
REMARK  141  A    between atoms: _355  and  _358
REMARK  142  A    between atoms: _358  and  _359
REMARK  143  A    between atoms: _364  and  _366
REMARK  144  A    between atoms: _366  and  _367
REMARK  145  A    between atoms: _366  and  _369
REMARK  146  A    between atoms: _369  and  _370
REMARK  147  A    between atoms: _370  and  _371
REMARK  148  A    between atoms: _374  and  _376
REMARK  149  A    between atoms: _376  and  _377
REMARK  150  A    between atoms: _376  and  _379
REMARK  151  A    between atoms: _379  and  _380
REMARK  152  A    between atoms: _390  and  _392
REMARK  153  A    between atoms: _392  and  _393
REMARK  154  A    between atoms: _392  and  _395
REMARK  155  A    between atoms: _395  and  _396
REMARK  156  A    between atoms: _401  and  _403
REMARK  157  A    between atoms: _403  and  _404
REMARK  158  A    between atoms: _403  and  _406
REMARK  159  A    between atoms: _409  and  _411
REMARK  160  A    between atoms: _411  and  _412
REMARK  161  A    between atoms: _411  and  _414
REMARK  162  A    between atoms: _414  and  _415
REMARK  163  A    between atoms: _419  and  _420
REMARK  164  A    between atoms: _425  and  _427
REMARK  165  A    between atoms: _427  and  _428
REMARK  166  A    between atoms: _427  and  _430
REMARK  167  A    between atoms: _430  and  _431
REMARK  168  A    between atoms: _431  and  _432
REMARK  169  A    between atoms: _437  and  _439
REMARK  170  A    between atoms: _439  and  _440
REMARK  171  A    between atoms: _439  and  _442
REMARK  172  A    between atoms: _442  and  _443
REMARK  173  A    between atoms: _443  and  _444
REMARK  174  A    between atoms: _447  and  _449
REMARK  175  A    between atoms: _449  and  _450
REMARK  176  A    between atoms: _449  and  _452
REMARK  177  A    between atoms: _452  and  _453
REMARK  178  A    between atoms: _455  and  _457
REMARK  179  A    between atoms: _457  and  _458
REMARK  180  A    between atoms: _457  and  _460
REMARK  181  A    between atoms: _460  and  _461
REMARK  182  A    between atoms: _464  and  _466
REMARK  183  A    between atoms: _466  and  _467
REMARK  184  A    between atoms: _466  and  _469
REMARK  185  A    between atoms: _469  and  _470
REMARK  186  A    between atoms: _476  and  _478
REMARK  187  A    between atoms: _478  and  _479
REMARK  188  A    between atoms: _478  and  _481
REMARK  189  A    between atoms: _481  and  _482
REMARK  190  A    between atoms: _482  and  _483
REMARK  191  A    between atoms: _483  and  _484
REMARK  192  A    between atoms: _493  and  _495
REMARK  193  A    between atoms: _495  and  _496
REMARK  194  A    between atoms: _495  and  _498
REMARK  195  A    between atoms: _498  and  _499
REMARK  196  A    between atoms: _505  and  _507
REMARK  197  A    between atoms: _507  and  _508
REMARK  198  A    between atoms: _507  and  _510
REMARK  199  A    between atoms: _510  and  _511
REMARK  200  A    between atoms: _513  and  _515
REMARK  201  A    between atoms: _515  and  _516
REMARK  202  A    between atoms: _515  and  _518
REMARK  203  A    between atoms: _518  and  _519
REMARK  204  A    between atoms: _519  and  _520
REMARK  205  A    between atoms: _523  and  _525
REMARK  206  A    between atoms: _525  and  _526
REMARK  207  A    between atoms: _525  and  _528
REMARK  208  A    between atoms: _528  and  _529
REMARK  209  A    between atoms: _531  and  _533
REMARK  210  A    between atoms: _533  and  _534
REMARK  211  A    between atoms: _533  and  _536
REMARK  212  A    between atoms: _536  and  _537
REMARK  213  A    between atoms: _542  and  _543
REMARK  214  A    between atoms: _545  and  _547
REMARK  215  A    between atoms: _547  and  _548
REMARK  216  A    between atoms: _547  and  _550
REMARK  217  A    between atoms: _550  and  _551
REMARK  218  A    between atoms: _557  and  _559
REMARK  219  A    between atoms: _559  and  _560
REMARK  220  A    between atoms: _559  and  _562
REMARK  221  A    between atoms: _562  and  _563
REMARK  222  A    between atoms: _566  and  _568
REMARK  223  A    between atoms: _568  and  _569
REMARK  224  A    between atoms: _568  and  _571
REMARK  225  A    between atoms: _574  and  _576
REMARK  226  A    between atoms: _576  and  _577
REMARK  227  A    between atoms: _576  and  _579
REMARK  228  A    between atoms: _579  and  _580
REMARK  229  A    between atoms: _585  and  _586
REMARK  230  A    between atoms: _588  and  _590
REMARK  231  A    between atoms: _590  and  _591
REMARK  232  A    between atoms: _593  and  _595
REMARK  233  A    between atoms: _595  and  _596
REMARK  234  A    between atoms: _595  and  _598
REMARK  235  A    between atoms: _601  and  _603
REMARK  236  A    between atoms: _603  and  _604
REMARK  237  A    between atoms: _603  and  _606
REMARK  238  A    between atoms: _606  and  _607
REMARK  239  A    between atoms: _611  and  _612
REMARK  240  A    between atoms: _617  and  _619
REMARK  241  A    between atoms: _619  and  _620
REMARK  242  A    between atoms: _619  and  _622
REMARK  243  A    between atoms: _622  and  _623
REMARK  244  A    between atoms: _626  and  _628
REMARK  245  A    between atoms: _628  and  _629
REMARK  246  A    between atoms: _628  and  _631
REMARK  247  A    between atoms: _631  and  _632
REMARK  248  A    between atoms: _642  and  _644
REMARK  249  A    between atoms: _644  and  _645
REMARK  250  A    between atoms: _644  and  _647
REMARK  251  A    between atoms: _647  and  _648
REMARK  252  A    between atoms: _648  and  _649
REMARK  253  A    between atoms: _652  and  _653
REMARK  254  A    between atoms: _658  and  _660
REMARK  255  A    between atoms: _660  and  _661
REMARK  256  A    between atoms: _660  and  _663
REMARK  257  A    between atoms: _663  and  _664
REMARK  258  A    between atoms: _669  and  _671
REMARK  259  A    between atoms: _671  and  _672
REMARK  260  A    between atoms: _674  and  _676
REMARK  261  A    between atoms: _676  and  _677
REMARK  262  A    between atoms: _676  and  _679
REMARK  263  A    between atoms: _679  and  _680
REMARK  264  A    between atoms: _685  and  _686
REMARK  265  A    between atoms: _688  and  _690
REMARK  266  A    between atoms: _690  and  _691
REMARK  267  A    between atoms: _690  and  _693
REMARK  268  A    between atoms: _693  and  _694
REMARK  269  A    between atoms: _694  and  _695
REMARK  270  A    between atoms: _698  and  _700
REMARK  271  A    between atoms: _700  and  _701
REMARK  272  A    between atoms: _700  and  _703
REMARK  273  A    between atoms: _703  and  _704
REMARK                            x       y       z     vdW  Elec       q    Type
REMARK                         _______ _______ _______ _____ _____    ______ ____
ROOT
ATOM      1  O   HOH     1      39.487  29.873   7.290  0.00  0.00    +0.000 OA
ENDROOT
TORSDOF 0
REMARK  Name = ../refined-set-2016/1q84/1q84_pocket.pdb
REMARK  273 active torsions:
REMARK  status: ('A' for Active; 'I' for Inactive)
REMARK    1  A    between atoms: _1  and  _3
REMARK    2  A    between atoms: _3  and  _4
REMARK    3  A    between atoms: _3  and  _6
REMARK    4  A    between atoms: _6  and  _7
REMARK    5  A    between atoms: _7  and  _8
REMARK    6  A    between atoms: _13  and  _15
REMARK    7  A    between atoms: _15  and  _16
REMARK    8  A    between atoms: _15  and  _18
REMARK    9  A    between atoms: _18  and  _19
REMARK   10  A    between atoms: _24  and  _25
REMARK   11  A    between atoms: _27  and  _29
REMARK   12  A    between atoms: _29  and  _30
REMARK   13  A    between atoms: _29  and  _32
REMARK   14  A    between atoms: _35  and  _37
REMARK   15  A    between atoms: _37  and  _38
REMARK   16  A    between atoms: _37  and  _40
REMARK   17  A    between atoms: _40  and  _41
REMARK   18  A    between atoms: _44  and  _46
REMARK   19  A    between atoms: _46  and  _47
REMARK   20  A    between atoms: _46  and  _49
REMARK   21  A    between atoms: _49  and  _50
REMARK   22  A    between atoms: _53  and  _55
REMARK   23  A    between atoms: _55  and  _56
REMARK   24  A    between atoms: _55  and  _58
REMARK   25  A    between atoms: _58  and  _59
REMARK   26  A    between atoms: _62  and  _64
REMARK   27  A    between atoms: _64  and  _65
REMARK   28  A    between atoms: _64  and  _67
REMARK   29  A    between atoms: _67  and  _68
REMARK   30  A    between atoms: _73  and  _74
REMARK   31  A    between atoms: _76  and  _78
REMARK   32  A    between atoms: _78  and  _79
REMARK   33  A    between atoms: _78  and  _81
REMARK   34  A    between atoms: _81  and  _82
REMARK   35  A    between atoms: _88  and  _90
REMARK   36  A    between atoms: _90  and  _91
REMARK   37  A    between atoms: _90  and  _93
REMARK   38  A    between atoms: _93  and  _94
REMARK   39  A    between atoms: _94  and  _95
REMARK   40  A    between atoms: _98  and  _100
REMARK   41  A    between atoms: _100  and  _101
REMARK   42  A    between atoms: _103  and  _105
REMARK   43  A    between atoms: _105  and  _106
REMARK   44  A    between atoms: _105  and  _108
REMARK   45  A    between atoms: _108  and  _109
REMARK   46  A    between atoms: _112  and  _114
REMARK   47  A    between atoms: _114  and  _115
REMARK   48  A    between atoms: _114  and  _117
REMARK   49  A    between atoms: _117  and  _118
REMARK   50  A    between atoms: _118  and  _119
REMARK   51  A    between atoms: _122  and  _124
REMARK   52  A    between atoms: _124  and  _125
REMARK   53  A    between atoms: _124  and  _127
REMARK   54  A    between atoms: _127  and  _128
REMARK   55  A    between atoms: _128  and  _129
REMARK   56  A    between atoms: _131  and  _133
REMARK   57  A    between atoms: _133  and  _134
REMARK   58  A    between atoms: _133  and  _136
REMARK   59  A    between atoms: _136  and  _137
REMARK   60  A    between atoms: _147  and  _149
REMARK   61  A    between atoms: _149  and  _150
REMARK   62  A    between atoms: _149  and  _152
REMARK   63  A    between atoms: _152  and  _153
REMARK   64  A    between atoms: _158  and  _160
REMARK   65  A    between atoms: _160  and  _161
REMARK   66  A    between atoms: _160  and  _163
REMARK   67  A    between atoms: _163  and  _164
REMARK   68  A    between atoms: _174  and  _176
REMARK   69  A    between atoms: _176  and  _177
REMARK   70  A    between atoms: _176  and  _179
REMARK   71  A    between atoms: _179  and  _180
REMARK   72  A    between atoms: _185  and  _186
REMARK   73  A    between atoms: _188  and  _190
REMARK   74  A    between atoms: _190  and  _191
REMARK   75  A    between atoms: _193  and  _195
REMARK   76  A    between atoms: _195  and  _196
REMARK   77  A    between atoms: _198  and  _200
REMARK   78  A    between atoms: _200  and  _201
REMARK   79  A    between atoms: _203  and  _205
REMARK   80  A    between atoms: _205  and  _206
REMARK   81  A    between atoms: _205  and  _208
REMARK   82  A    between atoms: _208  and  _209
REMARK   83  A    between atoms: _215  and  _217
REMARK   84  A    between atoms: _217  and  _218
REMARK   85  A    between atoms: _217  and  _220
REMARK   86  A    between atoms: _220  and  _221
REMARK   87  A    between atoms: _226  and  _227
REMARK   88  A    between atoms: _229  and  _231
REMARK   89  A    between atoms: _231  and  _232
REMARK   90  A    between atoms: _231  and  _234
REMARK   91  A    between atoms: _234  and  _235
REMARK   92  A    between atoms: _237  and  _239
REMARK   93  A    between atoms: _239  and  _240
REMARK   94  A    between atoms: _242  and  _244
REMARK   95  A    between atoms: _244  and  _245
REMARK   96  A    between atoms: _248  and  _250
REMARK   97  A    between atoms: _250  and  _251
REMARK   98  A    between atoms: _250  and  _253
REMARK   99  A    between atoms: _253  and  _254
REMARK  100  A    between atoms: _257  and  _259
REMARK  101  A    between atoms: _259  and  _260
REMARK  102  A    between atoms: _259  and  _262
REMARK  103  A    between atoms: _265  and  _267
REMARK  104  A    between atoms: _267  and  _268
REMARK  105  A    between atoms: _267  and  _270
REMARK  106  A    between atoms: _270  and  _271
REMARK  107  A    between atoms: _276  and  _277
REMARK  108  A    between atoms: _279  and  _281
REMARK  109  A    between atoms: _281  and  _282
REMARK  110  A    between atoms: _281  and  _284
REMARK  111  A    between atoms: _284  and  _285
REMARK  112  A    between atoms: _290  and  _291
REMARK  113  A    between atoms: _293  and  _295
REMARK  114  A    between atoms: _295  and  _296
REMARK  115  A    between atoms: _295  and  _298
REMARK  116  A    between atoms: _298  and  _299
REMARK  117  A    between atoms: _299  and  _300
REMARK  118  A    between atoms: _303  and  _305
REMARK  119  A    between atoms: _305  and  _306
REMARK  120  A    between atoms: _305  and  _308
REMARK  121  A    between atoms: _308  and  _309
REMARK  122  A    between atoms: _311  and  _313
REMARK  123  A    between atoms: _313  and  _314
REMARK  124  A    between atoms: _317  and  _319
REMARK  125  A    between atoms: _319  and  _320
REMARK  126  A    between atoms: _322  and  _324
REMARK  127  A    between atoms: _324  and  _325
REMARK  128  A    between atoms: _328  and  _330
REMARK  129  A    between atoms: _330  and  _331
REMARK  130  A    between atoms: _330  and  _333
REMARK  131  A    between atoms: _333  and  _334
REMARK  132  A    between atoms: _336  and  _338
REMARK  133  A    between atoms: _338  and  _339
REMARK  134  A    between atoms: _338  and  _341
REMARK  135  A    between atoms: _344  and  _346
REMARK  136  A    between atoms: _346  and  _347
REMARK  137  A    between atoms: _346  and  _349
REMARK  138  A    between atoms: _349  and  _350
REMARK  139  A    between atoms: _353  and  _355
REMARK  140  A    between atoms: _355  and  _356
REMARK  141  A    between atoms: _355  and  _358
REMARK  142  A    between atoms: _358  and  _359
REMARK  143  A    between atoms: _364  and  _366
REMARK  144  A    between atoms: _366  and  _367
REMARK  145  A    between atoms: _366  and  _369
REMARK  146  A    between atoms: _369  and  _370
REMARK  147  A    between atoms: _370  and  _371
REMARK  148  A    between atoms: _374  and  _376
REMARK  149  A    between atoms: _376  and  _377
REMARK  150  A    between atoms: _376  and  _379
REMARK  151  A    between atoms: _379  and  _380
REMARK  152  A    between atoms: _390  and  _392
REMARK  153  A    between atoms: _392  and  _393
REMARK  154  A    between atoms: _392  and  _395
REMARK  155  A    between atoms: _395  and  _396
REMARK  156  A    between atoms: _401  and  _403
REMARK  157  A    between atoms: _403  and  _404
REMARK  158  A    between atoms: _403  and  _406
REMARK  159  A    between atoms: _409  and  _411
REMARK  160  A    between atoms: _411  and  _412
REMARK  161  A    between atoms: _411  and  _414
REMARK  162  A    between atoms: _414  and  _415
REMARK  163  A    between atoms: _419  and  _420
REMARK  164  A    between atoms: _425  and  _427
REMARK  165  A    between atoms: _427  and  _428
REMARK  166  A    between atoms: _427  and  _430
REMARK  167  A    between atoms: _430  and  _431
REMARK  168  A    between atoms: _431  and  _432
REMARK  169  A    between atoms: _437  and  _439
REMARK  170  A    between atoms: _439  and  _440
REMARK  171  A    between atoms: _439  and  _442
REMARK  172  A    between atoms: _442  and  _443
REMARK  173  A    between atoms: _443  and  _444
REMARK  174  A    between atoms: _447  and  _449
REMARK  175  A    between atoms: _449  and  _450
REMARK  176  A    between atoms: _449  and  _452
REMARK  177  A    between atoms: _452  and  _453
REMARK  178  A    between atoms: _455  and  _457
REMARK  179  A    between atoms: _457  and  _458
REMARK  180  A    between atoms: _457  and  _460
REMARK  181  A    between atoms: _460  and  _461
REMARK  182  A    between atoms: _464  and  _466
REMARK  183  A    between atoms: _466  and  _467
REMARK  184  A    between atoms: _466  and  _469
REMARK  185  A    between atoms: _469  and  _470
REMARK  186  A    between atoms: _476  and  _478
REMARK  187  A    between atoms: _478  and  _479
REMARK  188  A    between atoms: _478  and  _481
REMARK  189  A    between atoms: _481  and  _482
REMARK  190  A    between atoms: _482  and  _483
REMARK  191  A    between atoms: _483  and  _484
REMARK  192  A    between atoms: _493  and  _495
REMARK  193  A    between atoms: _495  and  _496
REMARK  194  A    between atoms: _495  and  _498
REMARK  195  A    between atoms: _498  and  _499
REMARK  196  A    between atoms: _505  and  _507
REMARK  197  A    between atoms: _507  and  _508
REMARK  198  A    between atoms: _507  and  _510
REMARK  199  A    between atoms: _510  and  _511
REMARK  200  A    between atoms: _513  and  _515
REMARK  201  A    between atoms: _515  and  _516
REMARK  202  A    between atoms: _515  and  _518
REMARK  203  A    between atoms: _518  and  _519
REMARK  204  A    between atoms: _519  and  _520
REMARK  205  A    between atoms: _523  and  _525
REMARK  206  A    between atoms: _525  and  _526
REMARK  207  A    between atoms: _525  and  _528
REMARK  208  A    between atoms: _528  and  _529
REMARK  209  A    between atoms: _531  and  _533
REMARK  210  A    between atoms: _533  and  _534
REMARK  211  A    between atoms: _533  and  _536
REMARK  212  A    between atoms: _536  and  _537
REMARK  213  A    between atoms: _542  and  _543
REMARK  214  A    between atoms: _545  and  _547
REMARK  215  A    between atoms: _547  and  _548
REMARK  216  A    between atoms: _547  and  _550
REMARK  217  A    between atoms: _550  and  _551
REMARK  218  A    between atoms: _557  and  _559
REMARK  219  A    between atoms: _559  and  _560
REMARK  220  A    between atoms: _559  and  _562
REMARK  221  A    between atoms: _562  and  _563
REMARK  222  A    between atoms: _566  and  _568
REMARK  223  A    between atoms: _568  and  _569
REMARK  224  A    between atoms: _568  and  _571
REMARK  225  A    between atoms: _574  and  _576
REMARK  226  A    between atoms: _576  and  _577
REMARK  227  A    between atoms: _576  and  _579
REMARK  228  A    between atoms: _579  and  _580
REMARK  229  A    between atoms: _585  and  _586
REMARK  230  A    between atoms: _588  and  _590
REMARK  231  A    between atoms: _590  and  _591
REMARK  232  A    between atoms: _593  and  _595
REMARK  233  A    between atoms: _595  and  _596
REMARK  234  A    between atoms: _595  and  _598
REMARK  235  A    between atoms: _601  and  _603
REMARK  236  A    between atoms: _603  and  _604
REMARK  237  A    between atoms: _603  and  _606
REMARK  238  A    between atoms: _606  and  _607
REMARK  239  A    between atoms: _611  and  _612
REMARK  240  A    between atoms: _617  and  _619
REMARK  241  A    between atoms: _619  and  _620
REMARK  242  A    between atoms: _619  and  _622
REMARK  243  A    between atoms: _622  and  _623
REMARK  244  A    between atoms: _626  and  _628
REMARK  245  A    between atoms: _628  and  _629
REMARK  246  A    between atoms: _628  and  _631
REMARK  247  A    between atoms: _631  and  _632
REMARK  248  A    between atoms: _642  and  _644
REMARK  249  A    between atoms: _644  and  _645
REMARK  250  A    between atoms: _644  and  _647
REMARK  251  A    between atoms: _647  and  _648
REMARK  252  A    between atoms: _648  and  _649
REMARK  253  A    between atoms: _652  and  _653
REMARK  254  A    between atoms: _658  and  _660
REMARK  255  A    between atoms: _660  and  _661
REMARK  256  A    between atoms: _660  and  _663
REMARK  257  A    between atoms: _663  and  _664
REMARK  258  A    between atoms: _669  and  _671
REMARK  259  A    between atoms: _671  and  _672
REMARK  260  A    between atoms: _674  and  _676
REMARK  261  A    between atoms: _676  and  _677
REMARK  262  A    between atoms: _676  and  _679
REMARK  263  A    between atoms: _679  and  _680
REMARK  264  A    between atoms: _685  and  _686
REMARK  265  A    between atoms: _688  and  _690
REMARK  266  A    between atoms: _690  and  _691
REMARK  267  A    between atoms: _690  and  _693
REMARK  268  A    between atoms: _693  and  _694
REMARK  269  A    between atoms: _694  and  _695
REMARK  270  A    between atoms: _698  and  _700
REMARK  271  A    between atoms: _700  and  _701
REMARK  272  A    between atoms: _700  and  _703
REMARK  273  A    between atoms: _703  and  _704
REMARK                            x       y       z     vdW  Elec       q    Type
REMARK                         _______ _______ _______ _____ _____    ______ ____
ROOT
ATOM      1  O   HOH     1      43.516  21.505   3.114  0.00  0.00    +0.000 OA
ENDROOT
TORSDOF 0
